<?xml version="1.0" encoding="UTF-8"?>

<!-- generated on 01/20/18 11:42:28 by SUMO netgenerate Version 0.31.0
<?xml version="1.0" encoding="UTF-8"?>

<configuration xmlns:xsi="http://www.w3.org/2001/XMLSchema-instance" xsi:noNamespaceSchemaLocation="http://sumo.dlr.de/xsd/netgenerateConfiguration.xsd">

    <grid_network>
        <grid value="true"/>
        <grid.number value="4"/>
        <grid.length value="600"/>
    </grid_network>

    <output>
        <output-file value="4by4.net.xml"/>
    </output>

    <tls_building>
        <tls.guess value="true"/>
    </tls_building>

    <building_defaults>
        <default.lanenumber value="2"/>
    </building_defaults>

</configuration>
-->

<net version="0.27" xmlns:xsi="http://www.w3.org/2001/XMLSchema-instance" xsi:noNamespaceSchemaLocation="http://sumo.dlr.de/xsd/net_file.xsd">

    <location netOffset="0.00,0.00" convBoundary="0.00,0.00,1800.00,1800.00" origBoundary="0.00,0.00,1800.00,1800.00" projParameter="!"/>

    <edge id=":0/0_0" function="internal">
        <lane id=":0/0_0_0" index="0" speed="13.90" length="18.55" shape="-4.95,6.55 -4.23,1.52 -2.08,-2.08 1.52,-4.23 6.55,-4.95"/>
    </edge>
    <edge id=":0/0_1" function="internal">
        <lane id=":0/0_1_0" index="0" speed="13.90" length="13.22" shape="-1.65,6.55 -1.14,2.96 0.40,0.40 2.96,-1.14 6.55,-1.65"/>
    </edge>
    <edge id=":0/0_2" function="internal">
        <lane id=":0/0_2_0" index="0" speed="13.90" length="2.69" shape="-1.65,6.55 -0.83,5.31 0.00,4.90 0.25,5.03"/>
    </edge>
    <edge id=":0/0_6" function="internal">
        <lane id=":0/0_6_0" index="0" speed="13.90" length="2.13" shape="0.25,5.03 0.83,5.31 1.65,6.55"/>
    </edge>
    <edge id=":0/0_3" function="internal">
        <lane id=":0/0_3_0" index="0" speed="13.90" length="2.58" shape="6.55,4.95 5.85,5.05 5.35,5.35 5.05,5.85 4.95,6.55"/>
    </edge>
    <edge id=":0/0_4" function="internal">
        <lane id=":0/0_4_0" index="0" speed="13.90" length="7.90" shape="6.55,1.65 4.41,1.96 2.87,2.87 1.96,4.41 1.65,6.55"/>
    </edge>
    <edge id=":0/0_5" function="internal">
        <lane id=":0/0_5_0" index="0" speed="13.90" length="2.20" shape="6.55,1.65 5.31,0.83 4.99,0.19"/>
    </edge>
    <edge id=":0/0_7" function="internal">
        <lane id=":0/0_7_0" index="0" speed="13.90" length="2.62" shape="4.99,0.19 4.90,0.00 5.31,-0.83 6.55,-1.65"/>
    </edge>
    <edge id=":0/1_0" function="internal">
        <lane id=":0/1_0_0" index="0" speed="13.90" length="16.10" shape="-4.95,608.05 -4.95,591.95"/>
        <lane id=":0/1_0_1" index="1" speed="13.90" length="16.10" shape="-1.65,608.05 -1.65,591.95"/>
    </edge>
    <edge id=":0/1_2" function="internal">
        <lane id=":0/1_2_0" index="0" speed="13.90" length="6.41" shape="-1.65,608.05 -1.04,603.81 0.05,601.98"/>
    </edge>
    <edge id=":0/1_3" function="internal">
        <lane id=":0/1_3_0" index="0" speed="13.90" length="2.41" shape="-1.65,608.05 -0.83,606.81 0.00,606.40"/>
    </edge>
    <edge id=":0/1_11" function="internal">
        <lane id=":0/1_11_0" index="0" speed="13.90" length="9.23" shape="0.05,601.98 0.77,600.77 3.81,598.96 8.05,598.35"/>
    </edge>
    <edge id=":0/1_12" function="internal">
        <lane id=":0/1_12_0" index="0" speed="13.90" length="2.41" shape="0.00,606.40 0.83,606.81 1.65,608.05"/>
    </edge>
    <edge id=":0/1_4" function="internal">
        <lane id=":0/1_4_0" index="0" speed="13.90" length="5.00" shape="8.05,604.95 6.69,605.14 5.73,605.73 5.14,606.69 4.95,608.05"/>
    </edge>
    <edge id=":0/1_5" function="internal">
        <lane id=":0/1_5_0" index="0" speed="13.90" length="15.64" shape="8.05,601.65 3.81,601.04 0.77,599.22 -1.04,596.19 -1.65,591.95"/>
    </edge>
    <edge id=":0/1_6" function="internal">
        <lane id=":0/1_6_0" index="0" speed="13.90" length="2.41" shape="8.05,601.65 6.81,600.82 6.40,600.00"/>
    </edge>
    <edge id=":0/1_13" function="internal">
        <lane id=":0/1_13_0" index="0" speed="13.90" length="2.41" shape="6.40,600.00 6.81,599.17 8.05,598.35"/>
    </edge>
    <edge id=":0/1_7" function="internal">
        <lane id=":0/1_7_0" index="0" speed="13.90" length="5.00" shape="4.95,591.95 5.14,593.31 5.72,594.27 6.69,594.86 8.05,595.05"/>
    </edge>
    <edge id=":0/1_8" function="internal">
        <lane id=":0/1_8_0" index="0" speed="13.90" length="16.10" shape="4.95,591.95 4.95,608.05"/>
        <lane id=":0/1_8_1" index="1" speed="13.90" length="16.10" shape="1.65,591.95 1.65,608.05"/>
    </edge>
    <edge id=":0/1_10" function="internal">
        <lane id=":0/1_10_0" index="0" speed="13.90" length="2.41" shape="1.65,591.95 0.83,593.19 0.00,593.60"/>
    </edge>
    <edge id=":0/1_14" function="internal">
        <lane id=":0/1_14_0" index="0" speed="13.90" length="2.41" shape="0.00,593.60 -0.83,593.19 -1.65,591.95"/>
    </edge>
    <edge id=":0/2_0" function="internal">
        <lane id=":0/2_0_0" index="0" speed="13.90" length="16.10" shape="-4.95,1208.05 -4.95,1191.95"/>
        <lane id=":0/2_0_1" index="1" speed="13.90" length="16.10" shape="-1.65,1208.05 -1.65,1191.95"/>
    </edge>
    <edge id=":0/2_2" function="internal">
        <lane id=":0/2_2_0" index="0" speed="13.90" length="6.41" shape="-1.65,1208.05 -1.04,1203.81 0.05,1201.98"/>
    </edge>
    <edge id=":0/2_3" function="internal">
        <lane id=":0/2_3_0" index="0" speed="13.90" length="2.41" shape="-1.65,1208.05 -0.83,1206.81 0.00,1206.40"/>
    </edge>
    <edge id=":0/2_11" function="internal">
        <lane id=":0/2_11_0" index="0" speed="13.90" length="9.23" shape="0.05,1201.98 0.77,1200.78 3.81,1198.96 8.05,1198.35"/>
    </edge>
    <edge id=":0/2_12" function="internal">
        <lane id=":0/2_12_0" index="0" speed="13.90" length="2.41" shape="0.00,1206.40 0.83,1206.81 1.65,1208.05"/>
    </edge>
    <edge id=":0/2_4" function="internal">
        <lane id=":0/2_4_0" index="0" speed="13.90" length="5.00" shape="8.05,1204.95 6.69,1205.14 5.72,1205.73 5.14,1206.69 4.95,1208.05"/>
    </edge>
    <edge id=":0/2_5" function="internal">
        <lane id=":0/2_5_0" index="0" speed="13.90" length="15.64" shape="8.05,1201.65 3.81,1201.04 0.77,1199.23 -1.04,1196.19 -1.65,1191.95"/>
    </edge>
    <edge id=":0/2_6" function="internal">
        <lane id=":0/2_6_0" index="0" speed="13.90" length="2.41" shape="8.05,1201.65 6.81,1200.82 6.40,1200.00"/>
    </edge>
    <edge id=":0/2_13" function="internal">
        <lane id=":0/2_13_0" index="0" speed="13.90" length="2.41" shape="6.40,1200.00 6.81,1199.18 8.05,1198.35"/>
    </edge>
    <edge id=":0/2_7" function="internal">
        <lane id=":0/2_7_0" index="0" speed="13.90" length="5.00" shape="4.95,1191.95 5.14,1193.31 5.72,1194.28 6.69,1194.86 8.05,1195.05"/>
    </edge>
    <edge id=":0/2_8" function="internal">
        <lane id=":0/2_8_0" index="0" speed="13.90" length="16.10" shape="4.95,1191.95 4.95,1208.05"/>
        <lane id=":0/2_8_1" index="1" speed="13.90" length="16.10" shape="1.65,1191.95 1.65,1208.05"/>
    </edge>
    <edge id=":0/2_10" function="internal">
        <lane id=":0/2_10_0" index="0" speed="13.90" length="2.41" shape="1.65,1191.95 0.83,1193.19 0.00,1193.60"/>
    </edge>
    <edge id=":0/2_14" function="internal">
        <lane id=":0/2_14_0" index="0" speed="13.90" length="2.41" shape="0.00,1193.60 -0.83,1193.19 -1.65,1191.95"/>
    </edge>
    <edge id=":0/3_0" function="internal">
        <lane id=":0/3_0_0" index="0" speed="13.90" length="18.55" shape="6.55,1804.95 1.52,1804.23 -2.08,1802.08 -4.23,1798.48 -4.95,1793.45"/>
    </edge>
    <edge id=":0/3_1" function="internal">
        <lane id=":0/3_1_0" index="0" speed="13.90" length="13.22" shape="6.55,1801.65 2.96,1801.14 0.40,1799.60 -1.14,1797.04 -1.65,1793.45"/>
    </edge>
    <edge id=":0/3_2" function="internal">
        <lane id=":0/3_2_0" index="0" speed="13.90" length="2.69" shape="6.55,1801.65 5.31,1800.82 4.90,1800.00 5.03,1799.75"/>
    </edge>
    <edge id=":0/3_6" function="internal">
        <lane id=":0/3_6_0" index="0" speed="13.90" length="2.13" shape="5.03,1799.75 5.31,1799.18 6.55,1798.35"/>
    </edge>
    <edge id=":0/3_3" function="internal">
        <lane id=":0/3_3_0" index="0" speed="13.90" length="2.58" shape="4.95,1793.45 5.05,1794.15 5.35,1794.65 5.85,1794.95 6.55,1795.05"/>
    </edge>
    <edge id=":0/3_4" function="internal">
        <lane id=":0/3_4_0" index="0" speed="13.90" length="7.90" shape="1.65,1793.45 1.96,1795.59 2.87,1797.13 4.41,1798.04 6.55,1798.35"/>
    </edge>
    <edge id=":0/3_5" function="internal">
        <lane id=":0/3_5_0" index="0" speed="13.90" length="2.20" shape="1.65,1793.45 0.83,1794.69 0.19,1795.01"/>
    </edge>
    <edge id=":0/3_7" function="internal">
        <lane id=":0/3_7_0" index="0" speed="13.90" length="2.62" shape="0.19,1795.01 0.00,1795.10 -0.83,1794.69 -1.65,1793.45"/>
    </edge>
    <edge id=":1/0_0" function="internal">
        <lane id=":1/0_0_0" index="0" speed="13.90" length="5.00" shape="595.05,8.05 594.86,6.69 594.27,5.72 593.31,5.14 591.95,4.95"/>
    </edge>
    <edge id=":1/0_1" function="internal">
        <lane id=":1/0_1_0" index="0" speed="13.90" length="15.64" shape="598.35,8.05 598.96,3.81 600.78,0.77 603.81,-1.04 608.05,-1.65"/>
    </edge>
    <edge id=":1/0_2" function="internal">
        <lane id=":1/0_2_0" index="0" speed="13.90" length="2.41" shape="598.35,8.05 599.18,6.81 600.00,6.40"/>
    </edge>
    <edge id=":1/0_11" function="internal">
        <lane id=":1/0_11_0" index="0" speed="13.90" length="2.41" shape="600.00,6.40 600.83,6.81 601.65,8.05"/>
    </edge>
    <edge id=":1/0_3" function="internal">
        <lane id=":1/0_3_0" index="0" speed="13.90" length="5.00" shape="608.05,4.95 606.69,5.14 605.73,5.72 605.14,6.69 604.95,8.05"/>
    </edge>
    <edge id=":1/0_4" function="internal">
        <lane id=":1/0_4_0" index="0" speed="13.90" length="16.10" shape="608.05,4.95 591.95,4.95"/>
        <lane id=":1/0_4_1" index="1" speed="13.90" length="16.10" shape="608.05,1.65 591.95,1.65"/>
    </edge>
    <edge id=":1/0_6" function="internal">
        <lane id=":1/0_6_0" index="0" speed="13.90" length="2.41" shape="608.05,1.65 606.81,0.83 606.40,0.00"/>
    </edge>
    <edge id=":1/0_12" function="internal">
        <lane id=":1/0_12_0" index="0" speed="13.90" length="2.41" shape="606.40,0.00 606.81,-0.83 608.05,-1.65"/>
    </edge>
    <edge id=":1/0_7" function="internal">
        <lane id=":1/0_7_0" index="0" speed="13.90" length="16.10" shape="591.95,-4.95 608.05,-4.95"/>
        <lane id=":1/0_7_1" index="1" speed="13.90" length="16.10" shape="591.95,-1.65 608.05,-1.65"/>
    </edge>
    <edge id=":1/0_9" function="internal">
        <lane id=":1/0_9_0" index="0" speed="13.90" length="6.41" shape="591.95,-1.65 596.19,-1.04 598.02,0.05"/>
    </edge>
    <edge id=":1/0_10" function="internal">
        <lane id=":1/0_10_0" index="0" speed="13.90" length="2.41" shape="591.95,-1.65 593.19,-0.83 593.60,0.00"/>
    </edge>
    <edge id=":1/0_13" function="internal">
        <lane id=":1/0_13_0" index="0" speed="13.90" length="9.23" shape="598.02,0.05 599.23,0.77 601.04,3.81 601.65,8.05"/>
    </edge>
    <edge id=":1/0_14" function="internal">
        <lane id=":1/0_14_0" index="0" speed="13.90" length="2.41" shape="593.60,0.00 593.19,0.83 591.95,1.65"/>
    </edge>
    <edge id=":1/1_0" function="internal">
        <lane id=":1/1_0_0" index="0" speed="13.90" length="5.00" shape="595.05,608.05 594.86,606.69 594.27,605.73 593.31,605.14 591.95,604.95"/>
    </edge>
    <edge id=":1/1_1" function="internal">
        <lane id=":1/1_1_0" index="0" speed="13.90" length="16.10" shape="595.05,608.05 595.05,591.95"/>
        <lane id=":1/1_1_1" index="1" speed="13.90" length="16.10" shape="598.35,608.05 598.35,591.95"/>
    </edge>
    <edge id=":1/1_3" function="internal">
        <lane id=":1/1_3_0" index="0" speed="13.90" length="6.41" shape="598.35,608.05 598.96,603.81 600.05,601.98"/>
    </edge>
    <edge id=":1/1_4" function="internal">
        <lane id=":1/1_4_0" index="0" speed="13.90" length="2.41" shape="598.35,608.05 599.18,606.81 600.00,606.40"/>
    </edge>
    <edge id=":1/1_20" function="internal">
        <lane id=":1/1_20_0" index="0" speed="13.90" length="9.23" shape="600.05,601.98 600.78,600.77 603.81,598.96 608.05,598.35"/>
    </edge>
    <edge id=":1/1_21" function="internal">
        <lane id=":1/1_21_0" index="0" speed="13.90" length="2.41" shape="600.00,606.40 600.83,606.81 601.65,608.05"/>
    </edge>
    <edge id=":1/1_5" function="internal">
        <lane id=":1/1_5_0" index="0" speed="13.90" length="5.00" shape="608.05,604.95 606.69,605.14 605.73,605.73 605.14,606.69 604.95,608.05"/>
    </edge>
    <edge id=":1/1_6" function="internal">
        <lane id=":1/1_6_0" index="0" speed="13.90" length="16.10" shape="608.05,604.95 591.95,604.95"/>
        <lane id=":1/1_6_1" index="1" speed="13.90" length="16.10" shape="608.05,601.65 591.95,601.65"/>
    </edge>
    <edge id=":1/1_8" function="internal">
        <lane id=":1/1_8_0" index="0" speed="13.90" length="6.41" shape="608.05,601.65 603.81,601.04 601.98,599.95"/>
    </edge>
    <edge id=":1/1_9" function="internal">
        <lane id=":1/1_9_0" index="0" speed="13.90" length="2.41" shape="608.05,601.65 606.81,600.82 606.40,600.00"/>
    </edge>
    <edge id=":1/1_22" function="internal">
        <lane id=":1/1_22_0" index="0" speed="13.90" length="9.23" shape="601.98,599.95 600.77,599.22 598.96,596.19 598.35,591.95"/>
    </edge>
    <edge id=":1/1_23" function="internal">
        <lane id=":1/1_23_0" index="0" speed="13.90" length="2.41" shape="606.40,600.00 606.81,599.17 608.05,598.35"/>
    </edge>
    <edge id=":1/1_10" function="internal">
        <lane id=":1/1_10_0" index="0" speed="13.90" length="5.00" shape="604.95,591.95 605.14,593.31 605.73,594.27 606.69,594.86 608.05,595.05"/>
    </edge>
    <edge id=":1/1_11" function="internal">
        <lane id=":1/1_11_0" index="0" speed="13.90" length="16.10" shape="604.95,591.95 604.95,608.05"/>
        <lane id=":1/1_11_1" index="1" speed="13.90" length="16.10" shape="601.65,591.95 601.65,608.05"/>
    </edge>
    <edge id=":1/1_13" function="internal">
        <lane id=":1/1_13_0" index="0" speed="13.90" length="6.41" shape="601.65,591.95 601.04,596.19 599.95,598.02"/>
    </edge>
    <edge id=":1/1_14" function="internal">
        <lane id=":1/1_14_0" index="0" speed="13.90" length="2.41" shape="601.65,591.95 600.82,593.19 600.00,593.60"/>
    </edge>
    <edge id=":1/1_24" function="internal">
        <lane id=":1/1_24_0" index="0" speed="13.90" length="9.23" shape="599.95,598.02 599.22,599.23 596.19,601.04 591.95,601.65"/>
    </edge>
    <edge id=":1/1_25" function="internal">
        <lane id=":1/1_25_0" index="0" speed="13.90" length="2.41" shape="600.00,593.60 599.17,593.19 598.35,591.95"/>
    </edge>
    <edge id=":1/1_15" function="internal">
        <lane id=":1/1_15_0" index="0" speed="13.90" length="5.00" shape="591.95,595.05 593.31,594.86 594.27,594.27 594.86,593.31 595.05,591.95"/>
    </edge>
    <edge id=":1/1_16" function="internal">
        <lane id=":1/1_16_0" index="0" speed="13.90" length="16.10" shape="591.95,595.05 608.05,595.05"/>
        <lane id=":1/1_16_1" index="1" speed="13.90" length="16.10" shape="591.95,598.35 608.05,598.35"/>
    </edge>
    <edge id=":1/1_18" function="internal">
        <lane id=":1/1_18_0" index="0" speed="13.90" length="6.41" shape="591.95,598.35 596.19,598.96 598.02,600.05"/>
    </edge>
    <edge id=":1/1_19" function="internal">
        <lane id=":1/1_19_0" index="0" speed="13.90" length="2.41" shape="591.95,598.35 593.19,599.18 593.60,600.00"/>
    </edge>
    <edge id=":1/1_26" function="internal">
        <lane id=":1/1_26_0" index="0" speed="13.90" length="9.23" shape="598.02,600.05 599.23,600.78 601.04,603.81 601.65,608.05"/>
    </edge>
    <edge id=":1/1_27" function="internal">
        <lane id=":1/1_27_0" index="0" speed="13.90" length="2.41" shape="593.60,600.00 593.19,600.83 591.95,601.65"/>
    </edge>
    <edge id=":1/2_0" function="internal">
        <lane id=":1/2_0_0" index="0" speed="13.90" length="5.00" shape="595.05,1208.05 594.86,1206.69 594.27,1205.72 593.31,1205.14 591.95,1204.95"/>
    </edge>
    <edge id=":1/2_1" function="internal">
        <lane id=":1/2_1_0" index="0" speed="13.90" length="16.10" shape="595.05,1208.05 595.05,1191.95"/>
        <lane id=":1/2_1_1" index="1" speed="13.90" length="16.10" shape="598.35,1208.05 598.35,1191.95"/>
    </edge>
    <edge id=":1/2_3" function="internal">
        <lane id=":1/2_3_0" index="0" speed="13.90" length="6.41" shape="598.35,1208.05 598.96,1203.81 600.05,1201.98"/>
    </edge>
    <edge id=":1/2_4" function="internal">
        <lane id=":1/2_4_0" index="0" speed="13.90" length="2.41" shape="598.35,1208.05 599.18,1206.81 600.00,1206.40"/>
    </edge>
    <edge id=":1/2_20" function="internal">
        <lane id=":1/2_20_0" index="0" speed="13.90" length="9.23" shape="600.05,1201.98 600.78,1200.78 603.81,1198.96 608.05,1198.35"/>
    </edge>
    <edge id=":1/2_21" function="internal">
        <lane id=":1/2_21_0" index="0" speed="13.90" length="2.41" shape="600.00,1206.40 600.83,1206.81 601.65,1208.05"/>
    </edge>
    <edge id=":1/2_5" function="internal">
        <lane id=":1/2_5_0" index="0" speed="13.90" length="5.00" shape="608.05,1204.95 606.69,1205.14 605.73,1205.73 605.14,1206.69 604.95,1208.05"/>
    </edge>
    <edge id=":1/2_6" function="internal">
        <lane id=":1/2_6_0" index="0" speed="13.90" length="16.10" shape="608.05,1204.95 591.95,1204.95"/>
        <lane id=":1/2_6_1" index="1" speed="13.90" length="16.10" shape="608.05,1201.65 591.95,1201.65"/>
    </edge>
    <edge id=":1/2_8" function="internal">
        <lane id=":1/2_8_0" index="0" speed="13.90" length="6.41" shape="608.05,1201.65 603.81,1201.04 601.98,1199.95"/>
    </edge>
    <edge id=":1/2_9" function="internal">
        <lane id=":1/2_9_0" index="0" speed="13.90" length="2.41" shape="608.05,1201.65 606.81,1200.82 606.40,1200.00"/>
    </edge>
    <edge id=":1/2_22" function="internal">
        <lane id=":1/2_22_0" index="0" speed="13.90" length="9.23" shape="601.98,1199.95 600.77,1199.23 598.96,1196.19 598.35,1191.95"/>
    </edge>
    <edge id=":1/2_23" function="internal">
        <lane id=":1/2_23_0" index="0" speed="13.90" length="2.41" shape="606.40,1200.00 606.81,1199.18 608.05,1198.35"/>
    </edge>
    <edge id=":1/2_10" function="internal">
        <lane id=":1/2_10_0" index="0" speed="13.90" length="5.00" shape="604.95,1191.95 605.14,1193.31 605.73,1194.28 606.69,1194.86 608.05,1195.05"/>
    </edge>
    <edge id=":1/2_11" function="internal">
        <lane id=":1/2_11_0" index="0" speed="13.90" length="16.10" shape="604.95,1191.95 604.95,1208.05"/>
        <lane id=":1/2_11_1" index="1" speed="13.90" length="16.10" shape="601.65,1191.95 601.65,1208.05"/>
    </edge>
    <edge id=":1/2_13" function="internal">
        <lane id=":1/2_13_0" index="0" speed="13.90" length="6.41" shape="601.65,1191.95 601.04,1196.19 599.95,1198.02"/>
    </edge>
    <edge id=":1/2_14" function="internal">
        <lane id=":1/2_14_0" index="0" speed="13.90" length="2.41" shape="601.65,1191.95 600.82,1193.19 600.00,1193.60"/>
    </edge>
    <edge id=":1/2_24" function="internal">
        <lane id=":1/2_24_0" index="0" speed="13.90" length="9.23" shape="599.95,1198.02 599.22,1199.22 596.19,1201.04 591.95,1201.65"/>
    </edge>
    <edge id=":1/2_25" function="internal">
        <lane id=":1/2_25_0" index="0" speed="13.90" length="2.41" shape="600.00,1193.60 599.17,1193.19 598.35,1191.95"/>
    </edge>
    <edge id=":1/2_15" function="internal">
        <lane id=":1/2_15_0" index="0" speed="13.90" length="5.00" shape="591.95,1195.05 593.31,1194.86 594.27,1194.27 594.86,1193.31 595.05,1191.95"/>
    </edge>
    <edge id=":1/2_16" function="internal">
        <lane id=":1/2_16_0" index="0" speed="13.90" length="16.10" shape="591.95,1195.05 608.05,1195.05"/>
        <lane id=":1/2_16_1" index="1" speed="13.90" length="16.10" shape="591.95,1198.35 608.05,1198.35"/>
    </edge>
    <edge id=":1/2_18" function="internal">
        <lane id=":1/2_18_0" index="0" speed="13.90" length="6.41" shape="591.95,1198.35 596.19,1198.96 598.02,1200.05"/>
    </edge>
    <edge id=":1/2_19" function="internal">
        <lane id=":1/2_19_0" index="0" speed="13.90" length="2.41" shape="591.95,1198.35 593.19,1199.18 593.60,1200.00"/>
    </edge>
    <edge id=":1/2_26" function="internal">
        <lane id=":1/2_26_0" index="0" speed="13.90" length="9.23" shape="598.02,1200.05 599.23,1200.77 601.04,1203.81 601.65,1208.05"/>
    </edge>
    <edge id=":1/2_27" function="internal">
        <lane id=":1/2_27_0" index="0" speed="13.90" length="2.41" shape="593.60,1200.00 593.19,1200.83 591.95,1201.65"/>
    </edge>
    <edge id=":1/3_0" function="internal">
        <lane id=":1/3_0_0" index="0" speed="13.90" length="16.10" shape="608.05,1804.95 591.95,1804.95"/>
        <lane id=":1/3_0_1" index="1" speed="13.90" length="16.10" shape="608.05,1801.65 591.95,1801.65"/>
    </edge>
    <edge id=":1/3_2" function="internal">
        <lane id=":1/3_2_0" index="0" speed="13.90" length="6.41" shape="608.05,1801.65 603.81,1801.04 601.98,1799.95"/>
    </edge>
    <edge id=":1/3_3" function="internal">
        <lane id=":1/3_3_0" index="0" speed="13.90" length="2.41" shape="608.05,1801.65 606.81,1800.82 606.40,1800.00"/>
    </edge>
    <edge id=":1/3_11" function="internal">
        <lane id=":1/3_11_0" index="0" speed="13.90" length="9.23" shape="601.98,1799.95 600.77,1799.23 598.96,1796.19 598.35,1791.95"/>
    </edge>
    <edge id=":1/3_12" function="internal">
        <lane id=":1/3_12_0" index="0" speed="13.90" length="2.41" shape="606.40,1800.00 606.81,1799.18 608.05,1798.35"/>
    </edge>
    <edge id=":1/3_4" function="internal">
        <lane id=":1/3_4_0" index="0" speed="13.90" length="5.00" shape="604.95,1791.95 605.14,1793.31 605.73,1794.28 606.69,1794.86 608.05,1795.05"/>
    </edge>
    <edge id=":1/3_5" function="internal">
        <lane id=":1/3_5_0" index="0" speed="13.90" length="15.64" shape="601.65,1791.95 601.04,1796.19 599.22,1799.22 596.19,1801.04 591.95,1801.65"/>
    </edge>
    <edge id=":1/3_6" function="internal">
        <lane id=":1/3_6_0" index="0" speed="13.90" length="2.41" shape="601.65,1791.95 600.82,1793.19 600.00,1793.60"/>
    </edge>
    <edge id=":1/3_13" function="internal">
        <lane id=":1/3_13_0" index="0" speed="13.90" length="2.41" shape="600.00,1793.60 599.17,1793.19 598.35,1791.95"/>
    </edge>
    <edge id=":1/3_7" function="internal">
        <lane id=":1/3_7_0" index="0" speed="13.90" length="5.00" shape="591.95,1795.05 593.31,1794.86 594.27,1794.27 594.86,1793.31 595.05,1791.95"/>
    </edge>
    <edge id=":1/3_8" function="internal">
        <lane id=":1/3_8_0" index="0" speed="13.90" length="16.10" shape="591.95,1795.05 608.05,1795.05"/>
        <lane id=":1/3_8_1" index="1" speed="13.90" length="16.10" shape="591.95,1798.35 608.05,1798.35"/>
    </edge>
    <edge id=":1/3_10" function="internal">
        <lane id=":1/3_10_0" index="0" speed="13.90" length="2.41" shape="591.95,1798.35 593.19,1799.18 593.60,1800.00"/>
    </edge>
    <edge id=":1/3_14" function="internal">
        <lane id=":1/3_14_0" index="0" speed="13.90" length="2.41" shape="593.60,1800.00 593.19,1800.83 591.95,1801.65"/>
    </edge>
    <edge id=":2/0_0" function="internal">
        <lane id=":2/0_0_0" index="0" speed="13.90" length="5.00" shape="1195.05,8.05 1194.86,6.69 1194.27,5.73 1193.31,5.14 1191.95,4.95"/>
    </edge>
    <edge id=":2/0_1" function="internal">
        <lane id=":2/0_1_0" index="0" speed="13.90" length="15.64" shape="1198.35,8.05 1198.96,3.81 1200.77,0.77 1203.81,-1.04 1208.05,-1.65"/>
    </edge>
    <edge id=":2/0_2" function="internal">
        <lane id=":2/0_2_0" index="0" speed="13.90" length="2.41" shape="1198.35,8.05 1199.18,6.81 1200.00,6.40"/>
    </edge>
    <edge id=":2/0_11" function="internal">
        <lane id=":2/0_11_0" index="0" speed="13.90" length="2.41" shape="1200.00,6.40 1200.83,6.81 1201.65,8.05"/>
    </edge>
    <edge id=":2/0_3" function="internal">
        <lane id=":2/0_3_0" index="0" speed="13.90" length="5.00" shape="1208.05,4.95 1206.69,5.14 1205.72,5.72 1205.14,6.69 1204.95,8.05"/>
    </edge>
    <edge id=":2/0_4" function="internal">
        <lane id=":2/0_4_0" index="0" speed="13.90" length="16.10" shape="1208.05,4.95 1191.95,4.95"/>
        <lane id=":2/0_4_1" index="1" speed="13.90" length="16.10" shape="1208.05,1.65 1191.95,1.65"/>
    </edge>
    <edge id=":2/0_6" function="internal">
        <lane id=":2/0_6_0" index="0" speed="13.90" length="2.41" shape="1208.05,1.65 1206.81,0.83 1206.40,0.00"/>
    </edge>
    <edge id=":2/0_12" function="internal">
        <lane id=":2/0_12_0" index="0" speed="13.90" length="2.41" shape="1206.40,0.00 1206.81,-0.83 1208.05,-1.65"/>
    </edge>
    <edge id=":2/0_7" function="internal">
        <lane id=":2/0_7_0" index="0" speed="13.90" length="16.10" shape="1191.95,-4.95 1208.05,-4.95"/>
        <lane id=":2/0_7_1" index="1" speed="13.90" length="16.10" shape="1191.95,-1.65 1208.05,-1.65"/>
    </edge>
    <edge id=":2/0_9" function="internal">
        <lane id=":2/0_9_0" index="0" speed="13.90" length="6.41" shape="1191.95,-1.65 1196.19,-1.04 1198.02,0.05"/>
    </edge>
    <edge id=":2/0_10" function="internal">
        <lane id=":2/0_10_0" index="0" speed="13.90" length="2.41" shape="1191.95,-1.65 1193.19,-0.83 1193.60,0.00"/>
    </edge>
    <edge id=":2/0_13" function="internal">
        <lane id=":2/0_13_0" index="0" speed="13.90" length="9.23" shape="1198.02,0.05 1199.22,0.77 1201.04,3.81 1201.65,8.05"/>
    </edge>
    <edge id=":2/0_14" function="internal">
        <lane id=":2/0_14_0" index="0" speed="13.90" length="2.41" shape="1193.60,0.00 1193.19,0.83 1191.95,1.65"/>
    </edge>
    <edge id=":2/1_0" function="internal">
        <lane id=":2/1_0_0" index="0" speed="13.90" length="5.00" shape="1195.05,608.05 1194.86,606.69 1194.27,605.73 1193.31,605.14 1191.95,604.95"/>
    </edge>
    <edge id=":2/1_1" function="internal">
        <lane id=":2/1_1_0" index="0" speed="13.90" length="16.10" shape="1195.05,608.05 1195.05,591.95"/>
        <lane id=":2/1_1_1" index="1" speed="13.90" length="16.10" shape="1198.35,608.05 1198.35,591.95"/>
    </edge>
    <edge id=":2/1_3" function="internal">
        <lane id=":2/1_3_0" index="0" speed="13.90" length="6.41" shape="1198.35,608.05 1198.96,603.81 1200.05,601.98"/>
    </edge>
    <edge id=":2/1_4" function="internal">
        <lane id=":2/1_4_0" index="0" speed="13.90" length="2.41" shape="1198.35,608.05 1199.18,606.81 1200.00,606.40"/>
    </edge>
    <edge id=":2/1_20" function="internal">
        <lane id=":2/1_20_0" index="0" speed="13.90" length="9.23" shape="1200.05,601.98 1200.77,600.77 1203.81,598.96 1208.05,598.35"/>
    </edge>
    <edge id=":2/1_21" function="internal">
        <lane id=":2/1_21_0" index="0" speed="13.90" length="2.41" shape="1200.00,606.40 1200.83,606.81 1201.65,608.05"/>
    </edge>
    <edge id=":2/1_5" function="internal">
        <lane id=":2/1_5_0" index="0" speed="13.90" length="5.00" shape="1208.05,604.95 1206.69,605.14 1205.72,605.73 1205.14,606.69 1204.95,608.05"/>
    </edge>
    <edge id=":2/1_6" function="internal">
        <lane id=":2/1_6_0" index="0" speed="13.90" length="16.10" shape="1208.05,604.95 1191.95,604.95"/>
        <lane id=":2/1_6_1" index="1" speed="13.90" length="16.10" shape="1208.05,601.65 1191.95,601.65"/>
    </edge>
    <edge id=":2/1_8" function="internal">
        <lane id=":2/1_8_0" index="0" speed="13.90" length="6.41" shape="1208.05,601.65 1203.81,601.04 1201.98,599.95"/>
    </edge>
    <edge id=":2/1_9" function="internal">
        <lane id=":2/1_9_0" index="0" speed="13.90" length="2.41" shape="1208.05,601.65 1206.81,600.82 1206.40,600.00"/>
    </edge>
    <edge id=":2/1_22" function="internal">
        <lane id=":2/1_22_0" index="0" speed="13.90" length="9.23" shape="1201.98,599.95 1200.78,599.22 1198.96,596.19 1198.35,591.95"/>
    </edge>
    <edge id=":2/1_23" function="internal">
        <lane id=":2/1_23_0" index="0" speed="13.90" length="2.41" shape="1206.40,600.00 1206.81,599.17 1208.05,598.35"/>
    </edge>
    <edge id=":2/1_10" function="internal">
        <lane id=":2/1_10_0" index="0" speed="13.90" length="5.00" shape="1204.95,591.95 1205.14,593.31 1205.73,594.27 1206.69,594.86 1208.05,595.05"/>
    </edge>
    <edge id=":2/1_11" function="internal">
        <lane id=":2/1_11_0" index="0" speed="13.90" length="16.10" shape="1204.95,591.95 1204.95,608.05"/>
        <lane id=":2/1_11_1" index="1" speed="13.90" length="16.10" shape="1201.65,591.95 1201.65,608.05"/>
    </edge>
    <edge id=":2/1_13" function="internal">
        <lane id=":2/1_13_0" index="0" speed="13.90" length="6.41" shape="1201.65,591.95 1201.04,596.19 1199.95,598.02"/>
    </edge>
    <edge id=":2/1_14" function="internal">
        <lane id=":2/1_14_0" index="0" speed="13.90" length="2.41" shape="1201.65,591.95 1200.82,593.19 1200.00,593.60"/>
    </edge>
    <edge id=":2/1_24" function="internal">
        <lane id=":2/1_24_0" index="0" speed="13.90" length="9.23" shape="1199.95,598.02 1199.23,599.23 1196.19,601.04 1191.95,601.65"/>
    </edge>
    <edge id=":2/1_25" function="internal">
        <lane id=":2/1_25_0" index="0" speed="13.90" length="2.41" shape="1200.00,593.60 1199.18,593.19 1198.35,591.95"/>
    </edge>
    <edge id=":2/1_15" function="internal">
        <lane id=":2/1_15_0" index="0" speed="13.90" length="5.00" shape="1191.95,595.05 1193.31,594.86 1194.28,594.27 1194.86,593.31 1195.05,591.95"/>
    </edge>
    <edge id=":2/1_16" function="internal">
        <lane id=":2/1_16_0" index="0" speed="13.90" length="16.10" shape="1191.95,595.05 1208.05,595.05"/>