<?xml version="1.0" encoding="UTF-8"?>

<!-- generated on 01/20/18 12:58:55 by SUMO duarouter Version 0.31.0
<?xml version="1.0" encoding="UTF-8"?>

<configuration xmlns:xsi="http://www.w3.org/2001/XMLSchema-instance" xsi:noNamespaceSchemaLocation="http://sumo.dlr.de/xsd/duarouterConfiguration.xsd">

    <input>
        <net-file value="4by4.net.xml"/>
        <route-files value="trips.trips.xml"/>
    </input>

    <output>
        <output-file value="4by4.rou.xml"/>
    </output>

    <processing>
        <ignore-errors value="true"/>
    </processing>

    <time>
        <begin value="0"/>
        <end value="3600"/>
    </time>

    <report>
        <no-warnings value="true"/>
        <no-step-log value="true"/>
    </report>

</configuration>
-->

<routes xmlns:xsi="http://www.w3.org/2001/XMLSchema-instance" xsi:noNamespaceSchemaLocation="http://sumo.dlr.de/xsd/routes_file.xsd">
    <vehicle id="0" depart="0.00">
        <route edges="2/3to2/2 2/2to1/2 1/2to0/2 0/2to0/3 0/3to0/2"/>
    </vehicle>
    <vehicle id="1" depart="0.47">
        <route edges="1/3to1/2 1/2to1/1 1/1to1/0"/>
    </vehicle>
    <vehicle id="2" depart="0.94">
        <route edges="1/2to1/1 1/1to1/0 1/0to2/0 2/0to2/1"/>
    </vehicle>
    <vehicle id="3" depart="1.41">
        <route edges="3/0to3/1 3/1to2/1 2/1to1/1 1/1to1/2 1/2to1/1"/>
    </vehicle>
    <vehicle id="4" depart="1.88">
        <route edges="0/2to0/1 0/1to0/2 0/2to1/2 1/2to1/3 1/3to2/3 2/3to3/3"/>
    </vehicle>
    <vehicle id="5" depart="2.35">
        <route edges="1/3to1/2 1/2to2/2 2/2to2/3"/>
    </vehicle>
    <vehicle id="6" depart="2.82">
        <route edges="1/2to2/2 2/2to1/2 1/2to0/2 0/2to0/3 0/3to0/2"/>
    </vehicle>
    <vehicle id="7" depart="3.29">
        <route edges="1/2to0/2 0/2to0/1 0/1to0/2"/>
    </vehicle>
    <vehicle id="8" depart="3.76">
        <route edges="2/2to3/2 3/2to2/2 2/2to2/1 2/1to1/1"/>
    </vehicle>
    <vehicle id="9" depart="4.23">
        <route edges="0/2to0/3 0/3to0/2 0/2to0/1 0/1to1/1 1/1to1/2"/>
    </vehicle>
    <vehicle id="10" depart="4.70">
        <route edges="3/3to3/2 3/2to2/2 2/2to2/1 2/1to2/0 2/0to2/1"/>
    </vehicle>
    <vehicle id="11" depart="5.17">
        <route edges="3/0to2/0 2/0to1/0 1/0to1/1 1/1to1/0"/>
    </vehicle>
    <vehicle id="12" depart="5.64">
        <route edges="1/1to1/2 1/2to0/2 0/2to0/3 0/3to1/3"/>
    </vehicle>
    <vehicle id="13" depart="6.11">
        <route edges="1/2to1/1 1/1to0/1 0/1to0/2"/>
    </vehicle>
    <vehicle id="14" depart="6.58">
        <route edges="2/1to3/1 3/1to2/1 2/1to1/1 1/1to2/1"/>
    </vehicle>
    <vehicle id="15" depart="7.05">
        <route edges="2/1to2/0 2/0to1/0"/>
    </vehicle>
    <vehicle id="16" depart="7.52">
        <route edges="2/2to2/3 2/3to1/3 1/3to1/2 1/2to0/2"/>
    </vehicle>
    <vehicle id="17" depart="7.99">
        <route edges="3/1to2/1 2/1to2/0"/>
    </vehicle>
    <vehicle id="18" depart="8.46">
        <route edges="0/1to0/0 0/0to0/1 0/1to1/1 1/1to2/1 2/1to1/1"/>
    </vehicle>
    <vehicle id="19" depart="8.93">
        <route edges="2/2to2/3 2/3to1/3 1/3to1/2 1/2to0/2 0/2to0/1 0/1to1/1"/>
    </vehicle>
    <vehicle id="20" depart="9.40">
        <route edges="1/2to2/2 2/2to2/1 2/1to3/1 3/1to3/2"/>
    </vehicle>
    <vehicle id="21" depart="9.87">
        <route edges="2/1to3/1 3/1to2/1 2/1to1/1 1/1to0/1 0/1to0/0 0/0to1/0"/>
    </vehicle>
    <vehicle id="22" depart="10.34">
        <route edges="3/2to3/3 3/3to2/3"/>
    </vehicle>
    <vehicle id="23" depart="10.81">
        <route edges="1/0to2/0 2/0to1/0 1/0to1/1 1/1to1/2 1/2to1/3"/>
    </vehicle>
    <vehicle id="24" depart="11.28">
        <route edges="1/1to1/0 1/0to1/1 1/1to0/1 0/1to0/0"/>
    </vehicle>
    <vehicle id="25" depart="11.75">
        <route edges="1/3to0/3 0/3to0/2 0/2to0/1 0/1to1/1 1/1to2/1"/>
    </vehicle>
    <vehicle id="26" depart="12.22">
        <route edges="3/0to3/1 3/1to2/1 2/1to1/1 1/1to1/2 1/2to1/3"/>
    </vehicle>
    <vehicle id="27" depart="12.69">
        <route edges="0/1to0/2 0/2to0/1 0/1to1/1 1/1to2/1"/>
    </vehicle>
    <vehicle id="28" depart="13.16">
        <route edges="0/2to0/3 0/3to0/2 0/2to0/1 0/1to1/1 1/1to2/1"/>
    </vehicle>
    <vehicle id="29" depart="13.63">
        <route edges="1/2to2/2 2/2to1/2 1/2to1/3 1/3to2/3"/>
    </vehicle>
    <vehicle id="30" depart="14.10">
        <route edges="0/1to1/1 1/1to1/2 1/2to2/2 2/2to1/2"/>
    </vehicle>
    <vehicle id="31" depart="14.57">
        <route edges="1/0to1/1 1/1to1/2 1/2to2/2 2/2to3/2 3/2to3/1"/>
    </vehicle>
    <vehicle id="32" depart="15.04">
        <route edges="3/0to2/0 2/0to1/0 1/0to0/0 0/0to0/1"/>
    </vehicle>
    <vehicle id="33" depart="15.51">
        <route edges="2/2to2/3 2/3to2/2 2/2to2/1 2/1to2/2"/>
    </vehicle>
    <vehicle id="34" depart="15.98">
        <route edges="1/1to2/1 2/1to1/1 1/1to0/1 0/1to0/2"/>
    </vehicle>
    <vehicle id="35" depart="16.45">
        <route edges="1/2to1/1 1/1to1/2 1/2to2/2 2/2to3/2"/>
    </vehicle>
    <vehicle id="36" depart="16.92">
        <route edges="1/2to2/2 2/2to2/1 2/1to2/2"/>
    </vehicle>
    <vehicle id="37" depart="17.39">
        <route edges="2/1to1/1 1/1to1/2 1/2to2/2 2/2to3/2 3/2to3/3"/>
    </vehicle>
    <vehicle id="38" depart="17.86">
        <route edges="1/3to2/3 2/3to1/3 1/3to1/2 1/2to0/2 0/2to0/1 0/1to0/0"/>
    </vehicle>
    <vehicle id="39" depart="18.33">
        <route edges="1/0to2/0 2/0to1/0 1/0to1/1 1/1to1/2 1/2to1/3"/>
    </vehicle>
    <vehicle id="40" depart="18.80">
        <route edges="0/3to1/3 1/3to1/2 1/2to0/2"/>
    </vehicle>
    <vehicle id="41" depart="19.27">
        <route edges="1/1to1/0 1/0to1/1 1/1to1/2 1/2to1/3 1/3to1/2"/>
    </vehicle>
    <vehicle id="42" depart="19.74">
        <route edges="0/3to0/2 0/2to1/2 1/2to2/2"/>
    </vehicle>
    <vehicle id="43" depart="20.21">
        <route edges="1/0to0/0 0/0to1/0 1/0to2/0 2/0to2/1"/>
    </vehicle>
    <vehicle id="44" depart="20.68">
        <route edges="2/0to1/0 1/0to1/1 1/1to1/2 1/2to2/2 2/2to2/1"/>
    </vehicle>
    <vehicle id="45" depart="21.15">
        <route edges="2/1to2/0 2/0to1/0 1/0to1/1 1/1to1/2"/>
    </vehicle>
    <vehicle id="46" depart="21.62">
        <route edges="0/3to0/2"/>
    </vehicle>
    <vehicle id="47" depart="22.09">
        <route edges="3/0to3/1 3/1to2/1 2/1to1/1 1/1to0/1 0/1to0/0 0/0to0/1"/>
    </vehicle>
    <vehicle id="48" depart="22.56">
        <route edges="3/0to3/1 3/1to2/1 2/1to1/1 1/1to1/2 1/2to1/3 1/3to1/2"/>
    </vehicle>
    <vehicle id="49" depart="23.03">
        <route edges="2/3to1/3 1/3to1/2"/>
    </vehicle>
    <vehicle id="50" depart="23.50">
        <route edges="1/1to1/2 1/2to1/1 1/1to2/1 2/1to3/1 3/1to3/0"/>
    </vehicle>
    <vehicle id="51" depart="23.97">
        <route edges="1/2to2/2 2/2to2/1 2/1to1/1"/>
    </vehicle>
    <vehicle id="52" depart="24.44">
        <route edges="1/2to0/2 0/2to0/3 0/3to1/3"/>
    </vehicle>
    <vehicle id="53" depart="24.91">
        <route edges="0/3to0/2 0/2to0/1 0/1to0/0"/>
    </vehicle>
    <vehicle id="54" depart="25.38">
        <route edges="3/1to3/0 3/0to2/0 2/0to1/0 1/0to0/0 0/0to1/0"/>
    </vehicle>
    <vehicle id="55" depart="25.85">
        <route edges="2/0to2/1 2/1to1/1 1/1to0/1 0/1to0/0 0/0to0/1"/>
    </vehicle>
    <vehicle id="56" depart="26.32">
        <route edges="1/2to2/2 2/2to3/2 3/2to2/2"/>
    </vehicle>
    <vehicle id="57" depart="26.79">
        <route edges="3/1to3/0 3/0to2/0 2/0to2/1 2/1to2/2 2/2to2/3 2/3to3/3"/>
    </vehicle>
    <vehicle id="58" depart="27.26">
        <route edges="1/1to1/0 1/0to2/0 2/0to3/0 3/0to3/1"/>
    </vehicle>
    <vehicle id="59" depart="27.73">
        <route edges="2/3to2/2 2/2to2/1 2/1to2/2"/>
    </vehicle>
    <vehicle id="60" depart="28.20">
        <route edges="0/0to1/0 1/0to1/1 1/1to2/1 2/1to3/1 3/1to2/1"/>
    </vehicle>
    <vehicle id="61" depart="28.67">
        <route edges="1/2to2/2 2/2to2/1 2/1to2/0 2/0to2/1"/>
    </vehicle>
    <vehicle id="62" depart="29.14">
        <route edges="2/1to3/1 3/1to2/1 2/1to1/1 1/1to0/1 0/1to1/1"/>
    </vehicle>
    <vehicle id="63" depart="29.61">
        <route edges="3/2to3/1 3/1to3/2 3/2to3/3"/>
    </vehicle>
    <vehicle id="64" depart="30.08">
        <route edges="2/3to1/3 1/3to1/2 1/2to2/2 2/2to2/3"/>
    </vehicle>
    <vehicle id="65" depart="30.55">
        <route edges="2/3to1/3 1/3to1/2 1/2to1/1 1/1to2/1 2/1to1/1"/>
    </vehicle>
    <vehicle id="66" depart="31.02">
        <route edges="2/2to2/1 2/1to2/2 2/2to2/3 2/3to1/3"/>
    </vehicle>
    <vehicle id="67" depart="31.49">
        <route edges="3/0to3/1 3/1to2/1 2/1to1/1 1/1to1/2"/>
    </vehicle>
    <vehicle id="68" depart="31.96">
        <route edges="1/2to0/2 0/2to0/1 0/1to1/1 1/1to2/1 2/1to2/2"/>
    </vehicle>
    <vehicle id="69" depart="32.43">
        <route edges="0/2to0/3 0/3to1/3 1/3to0/3"/>
    </vehicle>
    <vehicle id="70" depart="32.90">
        <route edges="1/3to0/3 0/3to0/2 0/2to0/1 0/1to0/0 0/0to1/0"/>
    </vehicle>
    <vehicle id="71" depart="33.37">
        <route edges="3/1to2/1 2/1to1/1 1/1to0/1 0/1to0/2 0/2to0/3"/>
    </vehicle>
    <vehicle id="72" depart="33.84">
        <route edges="0/0to1/0 1/0to1/1 1/1to1/2 1/2to1/3"/>
    </vehicle>
    <vehicle id="73" depart="34.31">
        <route edges="0/1to1/1 1/1to1/2 1/2to2/2"/>
    </vehicle>
    <vehicle id="74" depart="34.78">
        <route edges="2/3to1/3 1/3to1/2 1/2to1/1 1/1to2/1 2/1to3/1 3/1to3/0"/>
    </vehicle>
    <vehicle id="75" depart="35.25">
        <route edges="1/0to2/0 2/0to2/1 2/1to2/2 2/2to2/1"/>
    </vehicle>
    <vehicle id="76" depart="35.72">
        <route edges="2/2to2/3 2/3to2/2"/>
    </vehicle>
    <vehicle id="77" depart="36.19">
        <route edges="2/0to3/0 3/0to2/0 2/0to1/0 1/0to0/0 0/0to1/0"/>
    </vehicle>
    <vehicle id="78" depart="36.66">
        <route edges="2/2to2/1 2/1to2/2 2/2to2/3 2/3to3/3 3/3to2/3"/>
    </vehicle>
    <vehicle id="79" depart="37.13">
        <route edges="1/2to1/3 1/3to1/2 1/2to1/1 1/1to1/0 1/0to2/0 2/0to1/0"/>
    </vehicle>
    <vehicle id="80" depart="37.60">
        <route edges="1/2to2/2 2/2to1/2 1/2to0/2 0/2to0/1 0/1to0/2"/>
    </vehicle>
    <vehicle id="81" depart="38.07">
        <route edges="3/2to3/3 3/3to3/2 3/2to3/1 3/1to2/1"/>
    </vehicle>
    <vehicle id="82" depart="38.54">
        <route edges="1/0to0/0 0/0to0/1 0/1to1/1 1/1to1/0"/>
    </vehicle>
    <vehicle id="83" depart="39.01">
        <route edges="2/3to3/3 3/3to3/2"/>
    </vehicle>
    <vehicle id="84" depart="39.48">
        <route edges="2/2to2/1 2/1to1/1 1/1to0/1 0/1to0/2 0/2to0/3 0/3to0/2"/>
    </vehicle>
    <vehicle id="85" depart="39.95">
        <route edges="0/2to1/2 1/2to1/1 1/1to1/0 1/0to2/0 2/0to1/0"/>
    </vehicle>
    <vehicle id="86" depart="40.42">
        <route edges="0/1to0/0 0/0to0/1 0/1to0/2 0/2to1/2 1/2to0/2"/>
    </vehicle>
    <vehicle id="87" depart="40.89">
        <route edges="1/0to2/0 2/0to1/0 1/0to1/1 1/1to1/2 1/2to2/2"/>
    </vehicle>
    <vehicle id="88" depart="41.36">
        <route edges="1/1to1/2 1/2to2/2 2/2to3/2 3/2to3/1"/>
    </vehicle>
    <vehicle id="89" depart="41.83">
        <route edges="3/0to2/0 2/0to1/0 1/0to1/1 1/1to1/2"/>
    </vehicle>
    <vehicle id="90" depart="42.30">
        <route edges="0/1to0/2 0/2to1/2 1/2to2/2 2/2to1/2"/>
    </vehicle>
    <vehicle id="91" depart="42.77">
        <route edges="2/1to3/1 3/1to2/1 2/1to1/1 1/1to1/2"/>
    </vehicle>
    <vehicle id="92" depart="43.24">
        <route edges="3/2to3/1 3/1to2/1 2/1to2/2 2/2to2/3 2/3to1/3"/>
    </vehicle>
    <vehicle id="93" depart="43.71">
        <route edges="0/2to0/1 0/1to1/1 1/1to1/0 1/0to2/0 2/0to3/0 3/0to3/1"/>
    </vehicle>
    <vehicle id="94" depart="44.18">
        <route edges="1/3to2/3 2/3to1/3 1/3to1/2 1/2to0/2 0/2to0/1 0/1to0/0 0/0to0/1"/>
    </vehicle>
    <vehicle id="95" depart="44.65">
        <route edges="0/0to0/1 0/1to0/2 0/2to1/2 1/2to1/3 1/3to2/3 2/3to3/3"/>
    </vehicle>
    <vehicle id="96" depart="45.12">
        <route edges="2/1to2/0 2/0to1/0 1/0to1/1 1/1to1/2 1/2to2/2"/>
    </vehicle>
    <vehicle id="97" depart="45.59">
        <route edges="1/0to0/0 0/0to0/1 0/1to0/2 0/2to1/2 1/2to2/2 2/2to3/2 3/2to3/1"/>
    </vehicle>
    <vehicle id="98" depart="46.06">
        <route edges="2/1to2/0 2/0to2/1 2/1to1/1"/>
    </vehicle>
    <vehicle id="99" depart="46.53">
        <route edges="2/1to2/0 2/0to2/1 2/1to2/2 2/2to2/3 2/3to3/3 3/3to2/3"/>
    </vehicle>
    <vehicle id="100" depart="47.00">
        <route edges="0/3to0/2 0/2to0/1 0/1to1/1 1/1to2/1 2/1to3/1 3/1to2/1"/>
    </vehicle>
    <vehicle id="101" depart="47.47">
        <route edges="1/2to1/1 1/1to1/2 1/2to1/3 1/3to2/3 2/3to2/2"/>
    </vehicle>
    <vehicle id="102" depart="47.94">
        <route edges="2/0to1/0 1/0to1/1"/>
    </vehicle>
    <vehicle id="103" depart="48.41">
        <route edges="0/3to0/2 0/2to1/2 1/2to2/2 2/2to3/2"/>
    </vehicle>
    <vehicle id="104" depart="48.88">
        <route edges="0/1to1/1 1/1to1/0 1/0to2/0 2/0to1/0"/>
    </vehicle>
    <vehicle id="105" depart="49.35">
        <route edges="1/3to2/3 2/3to2/2 2/2to2/1"/>
    </vehicle>
    <vehicle id="106" depart="49.82">
        <route edges="2/2to2/1 2/1to1/1 1/1to1/0 1/0to2/0"/>
    </vehicle>
    <vehicle id="107" depart="50.29">
        <route edges="1/0to1/1 1/1to1/0 1/0to2/0 2/0to2/1"/>
    </vehicle>
    <vehicle id="108" depart="50.76">
        <route edges="0/0to1/0 1/0to1/1 1/1to0/1 0/1to0/2 0/2to1/2"/>
    </vehicle>
    <vehicle id="109" depart="51.23">
        <route edges="1/0to1/1 1/1to1/2 1/2to1/3 1/3to2/3 2/3to1/3"/>
    </vehicle>
    <vehicle id="110" depart="51.70">
        <route edges="1/2to1/1 1/1to0/1 0/1to0/0"/>
    </vehicle>
    <vehicle id="111" depart="52.17">
        <route edges="1/3to0/3 0/3to0/2 0/2to0/1 0/1to1/1 1/1to1/0 1/0to0/0"/>
    </vehicle>
    <vehicle id="112" depart="52.64">
        <route edges="2/0to3/0 3/0to3/1 3/1to3/2"/>
    </vehicle>
    <vehicle id="113" depart="53.11">
        <route edges="2/0to2/1 2/1to1/1 1/1to1/2 1/2to2/2"/>
    </vehicle>
    <vehicle id="114" depart="53.58">
        <route edges="2/1to1/1 1/1to2/1 2/1to3/1 3/1to3/2"/>
    </vehicle>
    <vehicle id="115" depart="54.05">
        <route edges="2/2to2/3 2/3to1/3 1/3to2/3"/>
    </vehicle>
    <vehicle id="116" depart="54.52">
        <route edges="2/3to3/3 3/3to2/3 2/3to1/3 1/3to1/2 1/2to0/2 0/2to0/1 0/1to0/2"/>
    </vehicle>
    <vehicle id="117" depart="54.99">
        <route edges="2/3to3/3 3/3to2/3 2/3to1/3 1/3to1/2 1/2to1/3"/>
    </vehicle>
    <vehicle id="118" depart="55.46">
        <route edges="0/3to1/3 1/3to1/2 1/2to0/2 0/2to0/1 0/1to0/2"/>
    </vehicle>
    <vehicle id="119" depart="55.93">
        <route edges="2/1to1/1 1/1to1/0"/>
    </vehicle>
    <vehicle id="120" depart="56.40">
        <route edges="1/2to1/1 1/1to0/1 0/1to0/2 0/2to0/3 0/3to0/2"/>
    </vehicle>
    <vehicle id="121" depart="56.87">
        <route edges="1/1to2/1 2/1to2/0"/>
    </vehicle>
    <vehicle id="122" depart="57.34">
        <route edges="0/2to1/2 1/2to1/3"/>
    </vehicle>
    <vehicle id="123" depart="57.81">
        <route edges="0/3to0/2 0/2to1/2 1/2to1/3 1/3to2/3 2/3to1/3"/>
    </vehicle>
    <vehicle id="124" depart="58.28">
        <route edges="3/1to3/0 3/0to2/0 2/0to2/1 2/1to2/2 2/2to3/2"/>
    </vehicle>
    <vehicle id="125" depart="58.75">
        <route edges="0/2to0/1 0/1to0/2 0/2to1/2 1/2to2/2 2/2to2/3"/>
    </vehicle>
    <vehicle id="126" depart="59.22">
        <route edges="1/1to2/1 2/1to1/1 1/1to1/2 1/2to1/3"/>
    </vehicle>
    <vehicle id="127" depart="59.69">
        <route edges="1/3to0/3 0/3to1/3 1/3to2/3 2/3to1/3"/>
    </vehicle>
    <vehicle id="128" depart="60.16">
        <route edges="2/1to3/1 3/1to3/0"/>
    </vehicle>
    <vehicle id="129" depart="60.63">
        <route edges="2/3to3/3 3/3to2/3 2/3to1/3"/>
    </vehicle>
    <vehicle id="130" depart="61.10">
        <route edges="1/0to2/0 2/0to1/0 1/0to1/1 1/1to0/1 0/1to0/2 0/2to0/3 0/3to0/2"/>
    </vehicle>
    <vehicle id="131" depart="61.57">
        <route edges="2/3to2/2 2/2to2/1 2/1to2/0 2/0to1/0"/>
    </vehicle>
    <vehicle id="132" depart="62.04">
        <route edges="0/3to0/2 0/2to1/2 1/2to2/2 2/2to2/3"/>
    </vehicle>
    <vehicle id="133" depart="62.51">
        <route edges="0/0to1/0 1/0to1/1 1/1to0/1 0/1to0/2"/>
    </vehicle>
    <vehicle id="134" depart="62.98">
        <route edges="3/1to3/0 3/0to2/0 2/0to2/1 2/1to1/1"/>
    </vehicle>
    <vehicle id="135" depart="63.45">
        <route edges="3/3to2/3 2/3to2/2 2/2to2/1 2/1to2/0"/>
    </vehicle>
    <vehicle id="136" depart="63.92">
        <route edges="2/0to1/0 1/0to1/1 1/1to2/1 2/1to3/1 3/1to3/2"/>
    </vehicle>
    <vehicle id="137" depart="64.39">
        <route edges="1/3to2/3 2/3to2/2 2/2to2/1 2/1to3/1"/>
    </vehicle>
    <vehicle id="138" depart="64.86">
        <route edges="2/0to3/0 3/0to2/0 2/0to1/0 1/0to1/1 1/1to1/0"/>
    </vehicle>
    <vehicle id="139" depart="65.33">
        <route edges="2/3to1/3 1/3to2/3 2/3to2/2"/>
    </vehicle>
    <vehicle id="140" depart="65.80">
        <route edges="0/1to1/1 1/1to1/0 1/0to2/0 2/0to2/1"/>
    </vehicle>
    <vehicle id="141" depart="66.27">
        <route edges="1/2to1/3 1/3to1/2 1/2to1/1 1/1to1/2"/>
    </vehicle>
    <vehicle id="142" depart="66.74">
        <route edges="0/2to0/1"/>
    </vehicle>
    <vehicle id="143" depart="67.21">
        <route edges="1/1to2/1 2/1to1/1 1/1to1/2 1/2to1/3 1/3to1/2"/>
    </vehicle>
    <vehicle id="144" depart="67.68">
        <route edges="1/2to2/2 2/2to2/3 2/3to2/2"/>
    </vehicle>
    <vehicle id="145" depart="68.15">
        <route edges="0/1to0/2 0/2to0/1 0/1to1/1 1/1to2/1 2/1to1/1"/>
    </vehicle>
    <vehicle id="146" depart="68.62">
        <route edges="1/2to1/1 1/1to1/2 1/2to2/2"/>
    </vehicle>
    <vehicle id="147" depart="69.09">
        <route edges="0/3to0/2 0/2to0/1 0/1to1/1 1/1to1/0 1/0to2/0"/>
    </vehicle>
    <vehicle id="148" depart="69.56">
        <route edges="2/1to3/1 3/1to2/1 2/1to1/1 1/1to1/2 1/2to1/1"/>
    </vehicle>
    <vehicle id="149" depart="70.03">
        <route edges="3/2to3/3 3/3to2/3 2/3to1/3 1/3to1/2 1/2to1/1 1/1to0/1"/>
    </vehicle>
    <vehicle id="150" depart="70.50">
        <route edges="3/2to2/2 2/2to2/1 2/1to3/1 3/1to3/2"/>
    </vehicle>
    <vehicle id="151" depart="70.97">
        <route edges="0/2to0/1 0/1to1/1 1/1to2/1 2/1to1/1"/>
    </vehicle>
    <vehicle id="152" depart="71.44">
        <route edges="0/1to1/1 1/1to0/1 0/1to0/2 0/2to1/2"/>
    </vehicle>
    <vehicle id="153" depart="71.91">
        <route edges="3/3to3/2 3/2to3/1"/>
    </vehicle>
    <vehicle id="154" depart="72.38">
        <route edges="1/2to0/2 0/2to1/2 1/2to1/3 1/3to2/3 2/3to3/3"/>
    </vehicle>
    <vehicle id="155" depart="72.85">
        <route edges="0/1to1/1 1/1to1/2 1/2to2/2 2/2to1/2"/>
    </vehicle>
    <vehicle id="156" depart="73.32">
        <route edges="0/0to0/1 0/1to1/1 1/1to1/0 1/0to2/0 2/0to2/1"/>
    </vehicle>
    <vehicle id="157" depart="73.79">
        <route edges="2/1to2/2 2/2to1/2 1/2to1/3 1/3to0/3"/>
    </vehicle>
    <vehicle id="158" depart="74.26">
        <route edges="1/1to0/1 0/1to1/1 1/1to1/0"/>
    </vehicle>
    <vehicle id="159" depart="74.73">
        <route edges="0/1to0/0 0/0to0/1 0/1to0/2 0/2to1/2"/>
    </vehicle>
    <vehicle id="160" depart="75.20">
        <route edges="3/2to3/3 3/3to3/2 3/2to3/1 3/1to3/0"/>
    </vehicle>
    <vehicle id="161" depart="75.67">
        <route edges="0/2to0/3 0/3to0/2 0/2to0/1 0/1to0/0 0/0to1/0"/>
    </vehicle>
    <vehicle id="162" depart="76.14">
        <route edges="0/2to0/1 0/1to1/1 1/1to1/0 1/0to2/0 2/0to2/1"/>
    </vehicle>
    <vehicle id="163" depart="76.61">
        <route edges="2/1to2/0 2/0to1/0 1/0to1/1 1/1to1/2 1/2to1/3 1/3to1/2"/>
    </vehicle>
    <vehicle id="164" depart="77.08">
        <route edges="1/0to0/0 0/0to0/1 0/1to0/2 0/2to1/2 1/2to1/3 1/3to2/3 2/3to3/3"/>
    </vehicle>
    <vehicle id="165" depart="77.55">
        <route edges="3/3to2/3 2/3to1/3 1/3to1/2 1/2to0/2 0/2to0/1 0/1to0/2"/>
    </vehicle>
    <vehicle id="166" depart="78.02">
        <route edges="2/0to1/0 1/0to1/1 1/1to0/1 0/1to0/2"/>
    </vehicle>
    <vehicle id="167" depart="78.49">
        <route edges="2/2to2/3 2/3to1/3 1/3to1/2 1/2to1/1 1/1to1/0 1/0to2/0"/>
    </vehicle>
    <vehicle id="168" depart="78.96">
        <route edges="2/3to3/3 3/3to3/2 3/2to3/1 3/1to3/2"/>
    </vehicle>
    <vehicle id="169" depart="79.43">
        <route edges="2/3to2/2 2/2to2/1"/>
    </vehicle>
    <vehicle id="170" depart="79.90">
        <route edges="2/2to3/2 3/2to2/2 2/2to1/2 1/2to1/1 1/1to2/1"/>
    </vehicle>
    <vehicle id="171" depart="80.37">
        <route edges="1/1to0/1 0/1to0/0 0/0to0/1"/>
    </vehicle>
    <vehicle id="172" depart="80.84">
        <route edges="1/3to0/3 0/3to0/2 0/2to0/1 0/1to0/0 0/0to0/1"/>
    </vehicle>
    <vehicle id="173" depart="81.31">
        <route edges="3/2to3/3 3/3to2/3 2/3to1/3 1/3to1/2 1/2to1/1"/>
    </vehicle>
    <vehicle id="174" depart="81.78">
        <route edges="2/3to3/3 3/3to2/3 2/3to2/2 2/2to2/1 2/1to2/0"/>
    </vehicle>
    <vehicle id="175" depart="82.25">
        <route edges="2/1to2/2 2/2to2/1 2/1to3/1 3/1to3/2"/>
    </vehicle>
    <vehicle id="176" depart="82.72">
        <route edges="3/1to3/2 3/2to2/2 2/2to2/3 2/3to1/3"/>
    </vehicle>
    <vehicle id="177" depart="83.19">
        <route edges="0/1to0/0 0/0to0/1 0/1to0/2 0/2to1/2 1/2to0/2"/>
    </vehicle>
    <vehicle id="178" depart="83.66">
        <route edges="0/1to1/1 1/1to1/2 1/2to1/3"/>
    </vehicle>
    <vehicle id="179" depart="84.13">
        <route edges="3/0to3/1 3/1to2/1 2/1to1/1 1/1to0/1 0/1to1/1"/>
    </vehicle>
    <vehicle id="180" depart="84.60">
        <route edges="3/2to2/2"/>
    </vehicle>
    <vehicle id="181" depart="85.07">
        <route edges="0/1to1/1 1/1to1/0 1/0to2/0 2/0to3/0 3/0to3/1"/>
    </vehicle>
    <vehicle id="182" depart="85.54">
        <route edges="2/1to1/1 1/1to1/2"/>
    </vehicle>
    <vehicle id="183" depart="86.01">
        <route edges="2/1to2/2 2/2to1/2 1/2to0/2 0/2to0/3"/>
    </vehicle>
    <vehicle id="184" depart="86.48">
        <route edges="3/2to3/3 3/3to2/3 2/3to1/3 1/3to1/2 1/2to1/1 1/1to1/0"/>
    </vehicle>
    <vehicle id="185" depart="86.95">
        <route edges="0/0to1/0 1/0to1/1 1/1to1/2"/>
    </vehicle>
    <vehicle id="186" depart="87.42">
        <route edges="3/1to2/1 2/1to2/0 2/0to3/0 3/0to2/0"/>
    </vehicle>
    <vehicle id="187" depart="87.89">
        <route edges="2/0to1/0 1/0to2/0 2/0to3/0 3/0to2/0"/>
    </vehicle>
    <vehicle id="188" depart="88.36">
        <route edges="3/0to2/0 2/0to2/1 2/1to2/2 2/2to3/2"/>
    </vehicle>
    <vehicle id="189" depart="88.83">
        <route edges="2/0to3/0 3/0to2/0 2/0to2/1 2/1to2/2 2/2to2/3 2/3to1/3"/>
    </vehicle>
    <vehicle id="190" depart="89.30">
        <route edges="3/2to3/1 3/1to2/1 2/1to2/2 2/2to2/3"/>
    </vehicle>
    <vehicle id="191" depart="89.77">
        <route edges="1/2to1/3 1/3to1/2 1/2to2/2 2/2to2/3"/>
    </vehicle>
    <vehicle id="192" depart="90.24">
        <route edges="2/0to1/0 1/0to1/1 1/1to1/2 1/2to2/2 2/2to2/1"/>
    </vehicle>
    <vehicle id="193" depart="90.71">
        <route edges="2/2to2/3 2/3to1/3 1/3to1/2 1/2to1/1 1/1to0/1"/>
    </vehicle>
    <vehicle id="194" depart="91.18">
        <route edges="1/1to1/2 1/2to0/2 0/2to0/1"/>
    </vehicle>
    <vehicle id="195" depart="91.65">
        <route edges="1/1to0/1 0/1to0/2 0/2to1/2 1/2to2/2 2/2to1/2"/>
    </vehicle>
    <vehicle id="196" depart="92.12">
        <route edges="0/1to0/0 0/0to0/1 0/1to1/1 1/1to2/1 2/1to3/1 3/1to3/0"/>
    </vehicle>
    <vehicle id="197" depart="92.59">
        <route edges="3/1to3/0 3/0to2/0 2/0to1/0 1/0to1/1 1/1to0/1 0/1to0/2 0/2to0/1"/>
    </vehicle>
    <vehicle id="198" depart="93.06">
        <route edges="3/3to3/2 3/2to2/2 2/2to2/3 2/3to1/3"/>
    </vehicle>
    <vehicle id="199" depart="93.53">
        <route edges="1/0to0/0 0/0to0/1 0/1to0/2 0/2to1/2 1/2to1/3 1/3to2/3 2/3to3/3 3/3to3/2"/>
    </vehicle>
    <vehicle id="200" depart="94.00">
        <route edges="3/0to2/0 2/0to2/1 2/1to2/2 2/2to3/2"/>
    </vehicle>
    <vehicle id="201" depart="94.47">
        <route edges="1/1to0/1 0/1to0/2 0/2to0/3 0/3to0/2"/>
    </vehicle>
    <vehicle id="202" depart="94.94">
        <route edges="3/1to3/2 3/2to3/3"/>
    </vehicle>
    <vehicle id="203" depart="95.41">
        <route edges="0/0to0/1 0/1to0/2 0/2to1/2 1/2to1/3"/>
    </vehicle>
    <vehicle id="204" depart="95.88">
        <route edges="1/0to2/0 2/0to2/1 2/1to2/0"/>
    </vehicle>
    <vehicle id="205" depart="96.35">
        <route edges="1/0to1/1 1/1to1/0 1/0to2/0"/>
    </vehicle>
    <vehicle id="206" depart="96.82">
        <route edges="2/2to3/2 3/2to2/2 2/2to1/2 1/2to1/1 1/1to0/1"/>
    </vehicle>
    <vehicle id="207" depart="97.29">
        <route edges="2/3to3/3 3/3to2/3 2/3to1/3 1/3to1/2 1/2to0/2"/>
    </vehicle>
    <vehicle id="208" depart="97.76">
        <route edges="3/2to2/2 2/2to1/2 1/2to0/2 0/2to0/3 0/3to0/2"/>
    </vehicle>
    <vehicle id="209" depart="98.23">
        <route edges="1/1to2/1 2/1to2/2 2/2to2/3 2/3to3/3 3/3to3/2"/>
    </vehicle>
    <vehicle id="210" depart="98.70">
        <route edges="2/0to2/1 2/1to1/1 1/1to0/1 0/1to0/2 0/2to0/3"/>
    </vehicle>
    <vehicle id="211" depart="99.17">
        <route edges="2/1to2/0 2/0to1/0 1/0to1/1 1/1to1/2 1/2to1/1"/>
    </vehicle>
    <vehicle id="212" depart="99.64">
        <route edges="2/1to2/0 2/0to2/1 2/1to2/2 2/2to3/2"/>
    </vehicle>
    <vehicle id="213" depart="100.11">
        <route edges="2/3to1/3 1/3to2/3 2/3to3/3 3/3to3/2"/>
    </vehicle>
    <vehicle id="214" depart="100.58">
        <route edges="2/3to2/2 2/2to1/2 1/2to1/3 1/3to1/2"/>
    </vehicle>
    <vehicle id="215" depart="101.05">
        <route edges="2/2to3/2 3/2to2/2 2/2to2/3 2/3to1/3"/>
    </vehicle>
    <vehicle id="216" depart="101.52">
        <route edges="0/0to0/1 0/1to1/1 1/1to2/1 2/1to2/0"/>
    </vehicle>
    <vehicle id="217" depart="101.99">
        <route edges="0/1to1/1 1/1to0/1 0/1to0/2 0/2to1/2"/>
    </vehicle>
    <vehicle id="218" depart="102.46">
        <route edges="3/2to3/3 3/3to2/3 2/3to2/2 2/2to2/1 2/1to2/2"/>
    </vehicle>
    <vehicle id="219" depart="102.93">
        <route edges="3/0to2/0 2/0to1/0 1/0to1/1 1/1to2/1"/>
    </vehicle>
    <vehicle id="220" depart="103.40">
        <route edges="1/3to2/3"/>
    </vehicle>
    <vehicle id="221" depart="103.87">
        <route edges="3/3to2/3 2/3to1/3 1/3to1/2 1/2to0/2 0/2to0/1 0/1to1/1"/>
    </vehicle>
    <vehicle id="222" depart="104.34">
        <route edges="0/3to0/2 0/2to0/1 0/1to1/1 1/1to1/0 1/0to2/0 2/0to2/1"/>
    </vehicle>
    <vehicle id="223" depart="104.81">
        <route edges="3/2to3/1 3/1to2/1 2/1to1/1 1/1to2/1"/>
    </vehicle>
    <vehicle id="224" depart="105.28">
        <route edges="0/0to0/1 0/1to0/2 0/2to1/2 1/2to1/3 1/3to2/3 2/3to2/2"/>
    </vehicle>
    <vehicle id="225" depart="105.75">
        <route edges="1/2to1/1 1/1to1/2 1/2to2/2 2/2to2/1"/>
    </vehicle>
    <vehicle id="226" depart="106.22">
        <route edges="1/2to1/3 1/3to1/2 1/2to0/2 0/2to0/1 0/1to0/0 0/0to1/0"/>
    </vehicle>
    <vehicle id="227" depart="106.69">
        <route edges="3/2to3/1 3/1to2/1 2/1to1/1 1/1to0/1 0/1to1/1"/>
    </vehicle>
    <vehicle id="228" depart="107.16">
        <route edges="0/1to1/1 1/1to1/2 1/2to2/2 2/2to3/2 3/2to3/1"/>
    </vehicle>
    <vehicle id="229" depart="107.63">
        <route edges="0/2to0/1 0/1to0/2 0/2to0/3 0/3to0/2"/>
    </vehicle>
    <vehicle id="230" depart="108.10">
        <route edges="2/3to3/3 3/3to2/3 2/3to1/3 1/3to1/2 1/2to0/2 0/2to0/1 0/1to0/0 0/0to0/1"/>
    </vehicle>
    <vehicle id="231" depart="108.57">
        <route edges="3/3to3/2 3/2to2/2 2/2to2/1 2/1to2/0 2/0to3/0"/>
    </vehicle>
    <vehicle id="232" depart="109.04">
        <route edges="1/2to1/1 1/1to0/1 0/1to0/2 0/2to0/1"/>
    </vehicle>
    <vehicle id="233" depart="109.51">
        <route edges="1/2to0/2 0/2to1/2 1/2to2/2"/>
    </vehicle>
    <vehicle id="234" depart="109.98">
        <route edges="2/1to2/2 2/2to2/3 2/3to2/2"/>
    </vehicle>
    <vehicle id="235" depart="110.45">
        <route edges="2/0to3/0 3/0to2/0 2/0to1/0 1/0to0/0 0/0to1/0"/>
    </vehicle>
    <vehicle id="236" depart="110.92">
        <route edges="2/3to3/3 3/3to2/3 2/3to1/3 1/3to0/3 0/3to1/3"/>
    </vehicle>
    <vehicle id="237" depart="111.39">
        <route edges="0/1to0/2 0/2to0/1 0/1to1/1 1/1to1/0 1/0to2/0 2/0to1/0"/>
    </vehicle>
    <vehicle id="238" depart="111.86">
        <route edges="0/2to0/3 0/3to0/2 0/2to1/2 1/2to2/2 2/2to3/2 3/2to3/1"/>
    </vehicle>
    <vehicle id="239" depart="112.33">
        <route edges="3/1to3/2 3/2to2/2 2/2to2/1 2/1to2/0 2/0to3/0"/>
    </vehicle>
    <vehicle id="240" depart="112.80">
        <route edges="1/2to1/1 1/1to1/2 1/2to2/2 2/2to2/1"/>
    </vehicle>
    <vehicle id="241" depart="113.27">
        <route edges="1/0to1/1 1/1to1/2"/>
    </vehicle>
    <vehicle id="242" depart="113.74">
        <route edges="0/1to0/0 0/0to0/1 0/1to0/2 0/2to0/3"/>
    </vehicle>
    <vehicle id="243" depart="114.21">
        <route edges="1/2to1/1 1/1to1/0 1/0to2/0 2/0to2/1"/>
    </vehicle>
    <vehicle id="244" depart="114.68">
        <route edges="2/2to3/2 3/2to3/1 3/1to3/2"/>
    </vehicle>
    <vehicle id="245" depart="115.15">
        <route edges="1/2to0/2 0/2to1/2 1/2to2/2 2/2to3/2 3/2to2/2"/>
    </vehicle>
    <vehicle id="246" depart="115.62">
        <route edges="1/0to1/1 1/1to2/1 2/1to3/1 3/1to3/0"/>
    </vehicle>
    <vehicle id="247" depart="116.09">
        <route edges="3/1to3/2 3/2to2/2 2/2to1/2 1/2to2/2"/>
    </vehicle>
    <vehicle id="248" depart="116.56">
        <route edges="3/2to3/3 3/3to2/3 2/3to1/3 1/3to1/2 1/2to1/1 1/1to1/2"/>
    </vehicle>
    <vehicle id="249" depart="117.03">