<?xml version="1.0"?>
<!-- generated on 2018-01-20 12:58:54.895300 by $Id: randomTrips.py 25741 2017-08-30 11:58:01Z behrisch $
  options: -n 4by4.net.xml -r 4by4.rou.xml -p .47
-->
<routes xmlns:xsi="http://www.w3.org/2001/XMLSchema-instance" xsi:noNamespaceSchemaLocation="http://sumo.dlr.de/xsd/routes_file.xsd">
    <trip id="0" depart="0.00" from="2/3to2/2" to="0/3to0/2"/>
    <trip id="1" depart="0.47" from="1/3to1/2" to="1/1to1/0"/>
    <trip id="2" depart="0.94" from="1/2to1/1" to="2/0to2/1"/>
    <trip id="3" depart="1.41" from="3/0to3/1" to="1/2to1/1"/>
    <trip id="4" depart="1.88" from="0/2to0/1" to="2/3to3/3"/>
    <trip id="5" depart="2.35" from="1/3to1/2" to="2/2to2/3"/>
    <trip id="6" depart="2.82" from="1/2to2/2" to="0/3to0/2"/>
    <trip id="7" depart="3.29" from="1/2to0/2" to="0/1to0/2"/>
    <trip id="8" depart="3.76" from="2/2to3/2" to="2/1to1/1"/>
    <trip id="9" depart="4.23" from="0/2to0/3" to="1/1to1/2"/>
    <trip id="10" depart="4.70" from="3/3to3/2" to="2/0to2/1"/>
    <trip id="11" depart="5.17" from="3/0to2/0" to="1/1to1/0"/>
    <trip id="12" depart="5.64" from="1/1to1/2" to="0/3to1/3"/>
    <trip id="13" depart="6.11" from="1/2to1/1" to="0/1to0/2"/>
    <trip id="14" depart="6.58" from="2/1to3/1" to="1/1to2/1"/>
    <trip id="15" depart="7.05" from="2/1to2/0" to="2/0to1/0"/>
    <trip id="16" depart="7.52" from="2/2to2/3" to="1/2to0/2"/>
    <trip id="17" depart="7.99" from="3/1to2/1" to="2/1to2/0"/>
    <trip id="18" depart="8.46" from="0/1to0/0" to="2/1to1/1"/>
    <trip id="19" depart="8.93" from="2/2to2/3" to="0/1to1/1"/>
    <trip id="20" depart="9.40" from="1/2to2/2" to="3/1to3/2"/>
    <trip id="21" depart="9.87" from="2/1to3/1" to="0/0to1/0"/>
    <trip id="22" depart="10.34" from="3/2to3/3" to="3/3to2/3"/>
    <trip id="23" depart="10.81" from="1/0to2/0" to="1/2to1/3"/>
    <trip id="24" depart="11.28" from="1/1to1/0" to="0/1to0/0"/>
    <trip id="25" depart="11.75" from="1/3to0/3" to="1/1to2/1"/>
    <trip id="26" depart="12.22" from="3/0to3/1" to="1/2to1/3"/>
    <trip id="27" depart="12.69" from="0/1to0/2" to="1/1to2/1"/>
    <trip id="28" depart="13.16" from="0/2to0/3" to="1/1to2/1"/>
    <trip id="29" depart="13.63" from="1/2to2/2" to="1/3to2/3"/>
    <trip id="30" depart="14.10" from="0/1to1/1" to="2/2to1/2"/>
    <trip id="31" depart="14.57" from="1/0to1/1" to="3/2to3/1"/>
    <trip id="32" depart="15.04" from="3/0to2/0" to="0/0to0/1"/>
    <trip id="33" depart="15.51" from="2/2to2/3" to="2/1to2/2"/>
    <trip id="34" depart="15.98" from="1/1to2/1" to="0/1to0/2"/>
    <trip id="35" depart="16.45" from="1/2to1/1" to="2/2to3/2"/>
    <trip id="36" depart="16.92" from="1/2to2/2" to="2/1to2/2"/>
    <trip id="37" depart="17.39" from="2/1to1/1" to="3/2to3/3"/>
    <trip id="38" depart="17.86" from="1/3to2/3" to="0/1to0/0"/>
    <trip id="39" depart="18.33" from="1/0to2/0" to="1/2to1/3"/>
    <trip id="40" depart="18.80" from="0/3to1/3" to="1/2to0/2"/>
    <trip id="41" depart="19.27" from="1/1to1/0" to="1/3to1/2"/>
    <trip id="42" depart="19.74" from="0/3to0/2" to="1/2to2/2"/>
    <trip id="43" depart="20.21" from="1/0to0/0" to="2/0to2/1"/>
    <trip id="44" depart="20.68" from="2/0to1/0" to="2/2to2/1"/>
    <trip id="45" depart="21.15" from="2/1to2/0" to="1/1to1/2"/>
    <trip id="46" depart="21.62" from="0/3to0/2" to="0/3to0/2"/>
    <trip id="47" depart="22.09" from="3/0to3/1" to="0/0to0/1"/>
    <trip id="48" depart="22.56" from="3/0to3/1" to="1/3to1/2"/>
    <trip id="49" depart="23.03" from="2/3to1/3" to="1/3to1/2"/>
    <trip id="50" depart="23.50" from="1/1to1/2" to="3/1to3/0"/>
    <trip id="51" depart="23.97" from="1/2to2/2" to="2/1to1/1"/>
    <trip id="52" depart="24.44" from="1/2to0/2" to="0/3to1/3"/>
    <trip id="53" depart="24.91" from="0/3to0/2" to="0/1to0/0"/>
    <trip id="54" depart="25.38" from="3/1to3/0" to="0/0to1/0"/>
    <trip id="55" depart="25.85" from="2/0to2/1" to="0/0to0/1"/>
    <trip id="56" depart="26.32" from="1/2to2/2" to="3/2to2/2"/>
    <trip id="57" depart="26.79" from="3/1to3/0" to="2/3to3/3"/>
    <trip id="58" depart="27.26" from="1/1to1/0" to="3/0to3/1"/>
    <trip id="59" depart="27.73" from="2/3to2/2" to="2/1to2/2"/>
    <trip id="60" depart="28.20" from="0/0to1/0" to="3/1to2/1"/>
    <trip id="61" depart="28.67" from="1/2to2/2" to="2/0to2/1"/>
    <trip id="62" depart="29.14" from="2/1to3/1" to="0/1to1/1"/>
    <trip id="63" depart="29.61" from="3/2to3/1" to="3/2to3/3"/>
    <trip id="64" depart="30.08" from="2/3to1/3" to="2/2to2/3"/>
    <trip id="65" depart="30.55" from="2/3to1/3" to="2/1to1/1"/>
    <trip id="66" depart="31.02" from="2/2to2/1" to="2/3to1/3"/>
    <trip id="67" depart="31.49" from="3/0to3/1" to="1/1to1/2"/>
    <trip id="68" depart="31.96" from="1/2to0/2" to="2/1to2/2"/>
    <trip id="69" depart="32.43" from="0/2to0/3" to="1/3to0/3"/>
    <trip id="70" depart="32.90" from="1/3to0/3" to="0/0to1/0"/>
    <trip id="71" depart="33.37" from="3/1to2/1" to="0/2to0/3"/>
    <trip id="72" depart="33.84" from="0/0to1/0" to="1/2to1/3"/>
    <trip id="73" depart="34.31" from="0/1to1/1" to="1/2to2/2"/>
    <trip id="74" depart="34.78" from="2/3to1/3" to="3/1to3/0"/>
    <trip id="75" depart="35.25" from="1/0to2/0" to="2/2to2/1"/>
    <trip id="76" depart="35.72" from="2/2to2/3" to="2/3to2/2"/>
    <trip id="77" depart="36.19" from="2/0to3/0" to="0/0to1/0"/>
    <trip id="78" depart="36.66" from="2/2to2/1" to="3/3to2/3"/>
    <trip id="79" depart="37.13" from="1/2to1/3" to="2/0to1/0"/>
    <trip id="80" depart="37.60" from="1/2to2/2" to="0/1to0/2"/>
    <trip id="81" depart="38.07" from="3/2to3/3" to="3/1to2/1"/>
    <trip id="82" depart="38.54" from="1/0to0/0" to="1/1to1/0"/>
    <trip id="83" depart="39.01" from="2/3to3/3" to="3/3to3/2"/>
    <trip id="84" depart="39.48" from="2/2to2/1" to="0/3to0/2"/>
    <trip id="85" depart="39.95" from="0/2to1/2" to="2/0to1/0"/>
    <trip id="86" depart="40.42" from="0/1to0/0" to="1/2to0/2"/>
    <trip id="87" depart="40.89" from="1/0to2/0" to="1/2to2/2"/>
    <trip id="88" depart="41.36" from="1/1to1/2" to="3/2to3/1"/>
    <trip id="89" depart="41.83" from="3/0to2/0" to="1/1to1/2"/>
    <trip id="90" depart="42.30" from="0/1to0/2" to="2/2to1/2"/>
    <trip id="91" depart="42.77" from="2/1to3/1" to="1/1to1/2"/>
    <trip id="92" depart="43.24" from="3/2to3/1" to="2/3to1/3"/>
    <trip id="93" depart="43.71" from="0/2to0/1" to="3/0to3/1"/>
    <trip id="94" depart="44.18" from="1/3to2/3" to="0/0to0/1"/>
    <trip id="95" depart="44.65" from="0/0to0/1" to="2/3to3/3"/>
    <trip id="96" depart="45.12" from="2/1to2/0" to="1/2to2/2"/>
    <trip id="97" depart="45.59" from="1/0to0/0" to="3/2to3/1"/>
    <trip id="98" depart="46.06" from="2/1to2/0" to="2/1to1/1"/>
    <trip id="99" depart="46.53" from="2/1to2/0" to="3/3to2/3"/>
    <trip id="100" depart="47.00" from="0/3to0/2" to="3/1to2/1"/>
    <trip id="101" depart="47.47" from="1/2to1/1" to="2/3to2/2"/>
    <trip id="102" depart="47.94" from="2/0to1/0" to="1/0to1/1"/>
    <trip id="103" depart="48.41" from="0/3to0/2" to="2/2to3/2"/>
    <trip id="104" depart="48.88" from="0/1to1/1" to="2/0to1/0"/>
    <trip id="105" depart="49.35" from="1/3to2/3" to="2/2to2/1"/>
    <trip id="106" depart="49.82" from="2/2to2/1" to="1/0to2/0"/>
    <trip id="107" depart="50.29" from="1/0to1/1" to="2/0to2/1"/>
    <trip id="108" depart="50.76" from="0/0to1/0" to="0/2to1/2"/>
    <trip id="109" depart="51.23" from="1/0to1/1" to="2/3to1/3"/>
    <trip id="110" depart="51.70" from="1/2to1/1" to="0/1to0/0"/>
    <trip id="111" depart="52.17" from="1/3to0/3" to="1/0to0/0"/>
    <trip id="112" depart="52.64" from="2/0to3/0" to="3/1to3/2"/>
    <trip id="113" depart="53.11" from="2/0to2/1" to="1/2to2/2"/>
    <trip id="114" depart="53.58" from="2/1to1/1" to="3/1to3/2"/>
    <trip id="115" depart="54.05" from="2/2to2/3" to="1/3to2/3"/>
    <trip id="116" depart="54.52" from="2/3to3/3" to="0/1to0/2"/>
    <trip id="117" depart="54.99" from="2/3to3/3" to="1/2to1/3"/>
    <trip id="118" depart="55.46" from="0/3to1/3" to="0/1to0/2"/>
    <trip id="119" depart="55.93" from="2/1to1/1" to="1/1to1/0"/>
    <trip id="120" depart="56.40" from="1/2to1/1" to="0/3to0/2"/>
    <trip id="121" depart="56.87" from="1/1to2/1" to="2/1to2/0"/>
    <trip id="122" depart="57.34" from="0/2to1/2" to="1/2to1/3"/>
    <trip id="123" depart="57.81" from="0/3to0/2" to="2/3to1/3"/>
    <trip id="124" depart="58.28" from="3/1to3/0" to="2/2to3/2"/>
    <trip id="125" depart="58.75" from="0/2to0/1" to="2/2to2/3"/>
    <trip id="126" depart="59.22" from="1/1to2/1" to="1/2to1/3"/>
    <trip id="127" depart="59.69" from="1/3to0/3" to="2/3to1/3"/>
    <trip id="128" depart="60.16" from="2/1to3/1" to="3/1to3/0"/>
    <trip id="129" depart="60.63" from="2/3to3/3" to="2/3to1/3"/>
    <trip id="130" depart="61.10" from="1/0to2/0" to="0/3to0/2"/>
    <trip id="131" depart="61.57" from="2/3to2/2" to="2/0to1/0"/>
    <trip id="132" depart="62.04" from="0/3to0/2" to="2/2to2/3"/>
    <trip id="133" depart="62.51" from="0/0to1/0" to="0/1to0/2"/>
    <trip id="134" depart="62.98" from="3/1to3/0" to="2/1to1/1"/>
    <trip id="135" depart="63.45" from="3/3to2/3" to="2/1to2/0"/>
    <trip id="136" depart="63.92" from="2/0to1/0" to="3/1to3/2"/>
    <trip id="137" depart="64.39" from="1/3to2/3" to="2/1to3/1"/>
    <trip id="138" depart="64.86" from="2/0to3/0" to="1/1to1/0"/>
    <trip id="139" depart="65.33" from="2/3to1/3" to="2/3to2/2"/>
    <trip id="140" depart="65.80" from="0/1to1/1" to="2/0to2/1"/>
    <trip id="141" depart="66.27" from="1/2to1/3" to="1/1to1/2"/>
    <trip id="142" depart="66.74" from="0/2to0/1" to="0/2to0/1"/>
    <trip id="143" depart="67.21" from="1/1to2/1" to="1/3to1/2"/>
    <trip id="144" depart="67.68" from="1/2to2/2" to="2/3to2/2"/>
    <trip id="145" depart="68.15" from="0/1to0/2" to="2/1to1/1"/>
    <trip id="146" depart="68.62" from="1/2to1/1" to="1/2to2/2"/>
    <trip id="147" depart="69.09" from="0/3to0/2" to="1/0to2/0"/>
    <trip id="148" depart="69.56" from="2/1to3/1" to="1/2to1/1"/>
    <trip id="149" depart="70.03" from="3/2to3/3" to="1/1to0/1"/>
    <trip id="150" depart="70.50" from="3/2to2/2" to="3/1to3/2"/>
    <trip id="151" depart="70.97" from="0/2to0/1" to="2/1to1/1"/>
    <trip id="152" depart="71.44" from="0/1to1/1" to="0/2to1/2"/>
    <trip id="153" depart="71.91" from="3/3to3/2" to="3/2to3/1"/>
    <trip id="154" depart="72.38" from="1/2to0/2" to="2/3to3/3"/>
    <trip id="155" depart="72.85" from="0/1to1/1" to="2/2to1/2"/>
    <trip id="156" depart="73.32" from="0/0to0/1" to="2/0to2/1"/>
    <trip id="157" depart="73.79" from="2/1to2/2" to="1/3to0/3"/>
    <trip id="158" depart="74.26" from="1/1to0/1" to="1/1to1/0"/>
    <trip id="159" depart="74.73" from="0/1to0/0" to="0/2to1/2"/>
    <trip id="160" depart="75.20" from="3/2to3/3" to="3/1to3/0"/>
    <trip id="161" depart="75.67" from="0/2to0/3" to="0/0to1/0"/>
    <trip id="162" depart="76.14" from="0/2to0/1" to="2/0to2/1"/>
    <trip id="163" depart="76.61" from="2/1to2/0" to="1/3to1/2"/>
    <trip id="164" depart="77.08" from="1/0to0/0" to="2/3to3/3"/>
    <trip id="165" depart="77.55" from="3/3to2/3" to="0/1to0/2"/>
    <trip id="166" depart="78.02" from="2/0to1/0" to="0/1to0/2"/>
    <trip id="167" depart="78.49" from="2/2to2/3" to="1/0to2/0"/>
    <trip id="168" depart="78.96" from="2/3to3/3" to="3/1to3/2"/>
    <trip id="169" depart="79.43" from="2/3to2/2" to="2/2to2/1"/>
    <trip id="170" depart="79.90" from="2/2to3/2" to="1/1to2/1"/>
    <trip id="171" depart="80.37" from="1/1to0/1" to="0/0to0/1"/>
    <trip id="172" depart="80.84" from="1/3to0/3" to="0/0to0/1"/>
    <trip id="173" depart="81.31" from="3/2to3/3" to="1/2to1/1"/>
    <trip id="174" depart="81.78" from="2/3to3/3" to="2/1to2/0"/>
    <trip id="175" depart="82.25" from="2/1to2/2" to="3/1to3/2"/>
    <trip id="176" depart="82.72" from="3/1to3/2" to="2/3to1/3"/>
    <trip id="177" depart="83.19" from="0/1to0/0" to="1/2to0/2"/>
    <trip id="178" depart="83.66" from="0/1to1/1" to="1/2to1/3"/>
    <trip id="179" depart="84.13" from="3/0to3/1" to="0/1to1/1"/>
    <trip id="180" depart="84.60" from="3/2to2/2" to="3/2to2/2"/>
    <trip id="181" depart="85.07" from="0/1to1/1" to="3/0to3/1"/>
    <trip id="182" depart="85.54" from="2/1to1/1" to="1/1to1/2"/>
    <trip id="183" depart="86.01" from="2/1to2/2" to="0/2to0/3"/>
    <trip id="184" depart="86.48" from="3/2to3/3" to="1/1to1/0"/>
    <trip id="185" depart="86.95" from="0/0to1/0" to="1/1to1/2"/>
    <trip id="186" depart="87.42" from="3/1to2/1" to="3/0to2/0"/>
    <trip id="187" depart="87.89" from="2/0to1/0" to="3/0to2/0"/>
    <trip id="188" depart="88.36" from="3/0to2/0" to="2/2to3/2"/>
    <trip id="189" depart="88.83" from="2/0to3/0" to="2/3to1/3"/>
    <trip id="190" depart="89.30" from="3/2to3/1" to="2/2to2/3"/>
    <trip id="191" depart="89.77" from="1/2to1/3" to="2/2to2/3"/>
    <trip id="192" depart="90.24" from="2/0to1/0" to="2/2to2/1"/>
    <trip id="193" depart="90.71" from="2/2to2/3" to="1/1to0/1"/>
    <trip id="194" depart="91.18" from="1/1to1/2" to="0/2to0/1"/>
    <trip id="195" depart="91.65" from="1/1to0/1" to="2/2to1/2"/>
    <trip id="196" depart="92.12" from="0/1to0/0" to="3/1to3/0"/>
    <trip id="197" depart="92.59" from="3/1to3/0" to="0/2to0/1"/>
    <trip id="198" depart="93.06" from="3/3to3/2" to="2/3to1/3"/>
    <trip id="199" depart="93.53" from="1/0to0/0" to="3/3to3/2"/>
    <trip id="200" depart="94.00" from="3/0to2/0" to="2/2to3/2"/>
    <trip id="201" depart="94.47" from="1/1to0/1" to="0/3to0/2"/>
    <trip id="202" depart="94.94" from="3/1to3/2" to="3/2to3/3"/>
    <trip id="203" depart="95.41" from="0/0to0/1" to="1/2to1/3"/>
    <trip id="204" depart="95.88" from="1/0to2/0" to="2/1to2/0"/>
    <trip id="205" depart="96.35" from="1/0to1/1" to="1/0to2/0"/>
    <trip id="206" depart="96.82" from="2/2to3/2" to="1/1to0/1"/>
    <trip id="207" depart="97.29" from="2/3to3/3" to="1/2to0/2"/>
    <trip id="208" depart="97.76" from="3/2to2/2" to="0/3to0/2"/>
    <trip id="209" depart="98.23" from="1/1to2/1" to="3/3to3/2"/>
    <trip id="210" depart="98.70" from="2/0to2/1" to="0/2to0/3"/>
    <trip id="211" depart="99.17" from="2/1to2/0" to="1/2to1/1"/>
    <trip id="212" depart="99.64" from="2/1to2/0" to="2/2to3/2"/>
    <trip id="213" depart="100.11" from="2/3to1/3" to="3/3to3/2"/>
    <trip id="214" depart="100.58" from="2/3to2/2" to="1/3to1/2"/>
    <trip id="215" depart="101.05" from="2/2to3/2" to="2/3to1/3"/>
    <trip id="216" depart="101.52" from="0/0to0/1" to="2/1to2/0"/>
    <trip id="217" depart="101.99" from="0/1to1/1" to="0/2to1/2"/>
    <trip id="218" depart="102.46" from="3/2to3/3" to="2/1to2/2"/>
    <trip id="219" depart="102.93" from="3/0to2/0" to="1/1to2/1"/>
    <trip id="220" depart="103.40" from="1/3to2/3" to="1/3to2/3"/>
    <trip id="221" depart="103.87" from="3/3to2/3" to="0/1to1/1"/>
    <trip id="222" depart="104.34" from="0/3to0/2" to="2/0to2/1"/>
    <trip id="223" depart="104.81" from="3/2to3/1" to="1/1to2/1"/>
    <trip id="224" depart="105.28" from="0/0to0/1" to="2/3to2/2"/>
    <trip id="225" depart="105.75" from="1/2to1/1" to="2/2to2/1"/>
    <trip id="226" depart="106.22" from="1/2to1/3" to="0/0to1/0"/>
    <trip id="227" depart="106.69" from="3/2to3/1" to="0/1to1/1"/>
    <trip id="228" depart="107.16" from="0/1to1/1" to="3/2to3/1"/>
    <trip id="229" depart="107.63" from="0/2to0/1" to="0/3to0/2"/>
    <trip id="230" depart="108.10" from="2/3to3/3" to="0/0to0/1"/>
    <trip id="231" depart="108.57" from="3/3to3/2" to="2/0to3/0"/>
    <trip id="232" depart="109.04" from="1/2to1/1" to="0/2to0/1"/>
    <trip id="233" depart="109.51" from="1/2to0/2" to="1/2to2/2"/>
    <trip id="234" depart="109.98" from="2/1to2/2" to="2/3to2/2"/>
    <trip id="235" depart="110.45" from="2/0to3/0" to="0/0to1/0"/>
    <trip id="236" depart="110.92" from="2/3to3/3" to="0/3to1/3"/>
    <trip id="237" depart="111.39" from="0/1to0/2" to="2/0to1/0"/>
    <trip id="238" depart="111.86" from="0/2to0/3" to="3/2to3/1"/>
    <trip id="239" depart="112.33" from="3/1to3/2" to="2/0to3/0"/>
    <trip id="240" depart="112.80" from="1/2to1/1" to="2/2to2/1"/>
    <trip id="241" depart="113.27" from="1/0to1/1" to="1/1to1/2"/>
    <trip id="242" depart="113.74" from="0/1to0/0" to="0/2to0/3"/>
    <trip id="243" depart="114.21" from="1/2to1/1" to="2/0to2/1"/>
    <trip id="244" depart="114.68" from="2/2to3/2" to="3/1to3/2"/>
    <trip id="245" depart="115.15" from="1/2to0/2" to="3/2to2/2"/>
    <trip id="246" depart="115.62" from="1/0to1/1" to="3/1to3/0"/>
    <trip id="247" depart="116.09" from="3/1to3/2" to="1/2to2/2"/>
    <trip id="248" depart="116.56" from="3/2to3/3" to="1/1to1/2"/>
    <trip id="249" depart="117.03" from="1/2to1/3" to="3/1to2/1"/>
    <trip id="250" depart="117.50" from="3/2to2/2" to="1/0to1/1"/>
    <trip id="251" depart="117.97" from="2/3to2/2" to="3/2to2/2"/>
    <trip id="252" depart="118.44" from="0/2to0/1" to="0/2to1/2"/>
    <trip id="253" depart="118.91" from="2/1to2/0" to="2/0to2/1"/>
    <trip id="254" depart="119.38" from="1/3to2/3" to="2/1to2/0"/>
    <trip id="255" depart="119.85" from="2/1to2/2" to="2/0to1/0"/>
    <trip id="256" depart="120.32" from="1/2to1/3" to="2/0to3/0"/>
    <trip id="257" depart="120.79" from="0/1to0/0" to="1/3to0/3"/>
    <trip id="258" depart="121.26" from="2/1to1/1" to="0/2to0/3"/>
    <trip id="259" depart="121.73" from="3/0to2/0" to="2/0to1/0"/>
    <trip id="260" depart="122.20" from="0/1to1/1" to="2/1to3/1"/>
    <trip id="261" depart="122.67" from="0/1to0/2" to="0/1to0/0"/>
    <trip id="262" depart="123.14" from="2/3to1/3" to="0/2to0/1"/>
    <trip id="263" depart="123.61" from="1/1to1/0" to="0/3to0/2"/>
    <trip id="264" depart="124.08" from="2/2to2/1" to="2/0to3/0"/>
    <trip id="265" depart="124.55" from="0/1to0/0" to="3/3to2/3"/>
    <trip id="266" depart="125.02" from="3/0to2/0" to="2/0to1/0"/>
    <trip id="267" depart="125.49" from="2/2to3/2" to="2/2to2/1"/>
    <trip id="268" depart="125.96" from="3/0to3/1" to="1/0to1/1"/>
    <trip id="269" depart="126.43" from="0/0to1/0" to="2/2to2/3"/>
    <trip id="270" depart="126.90" from="1/0to0/0" to="2/3to1/3"/>
    <trip id="271" depart="127.37" from="0/1to0/2" to="1/2to0/2"/>
    <trip id="272" depart="127.84" from="1/2to0/2" to="2/1to2/0"/>
    <trip id="273" depart="128.31" from="2/3to3/3" to="0/1to0/0"/>
    <trip id="274" depart="128.78" from="2/1to3/1" to="1/3to0/3"/>
    <trip id="275" depart="129.25" from="1/1to0/1" to="3/1to3/0"/>
    <trip id="276" depart="129.72" from="3/0to2/0" to="2/2to1/2"/>
    <trip id="277" depart="130.19" from="1/1to0/1" to="0/1to0/2"/>
    <trip id="278" depart="130.66" from="3/1to3/2" to="3/2to3/3"/>
    <trip id="279" depart="131.13" from="2/3to1/3" to="0/1to1/1"/>
    <trip id="280" depart="131.60" from="2/1to1/1" to="3/2to3/3"/>
    <trip id="281" depart="132.07" from="0/0to0/1" to="0/1to0/0"/>
    <trip id="282" depart="132.54" from="0/3to0/2" to="3/1to3/2"/>
    <trip id="283" depart="133.01" from="1/1to0/1" to="1/2to1/3"/>
    <trip id="284" depart="133.48" from="3/0to3/1" to="1/1to0/1"/>
    <trip id="285" depart="133.95" from="1/2to1/3" to="3/3to2/3"/>
    <trip id="286" depart="134.42" from="0/0to0/1" to="1/1to2/1"/>
    <trip id="287" depart="134.89" from="1/3to0/3" to="2/1to1/1"/>
    <trip id="288" depart="135.36" from="1/2to1/3" to="2/2to2/3"/>
    <trip id="289" depart="135.83" from="1/0to0/0" to="2/0to1/0"/>
    <trip id="290" depart="136.30" from="1/0to1/1" to="0/0to0/1"/>
    <trip id="291" depart="136.77" from="1/2to0/2" to="3/3to2/3"/>
    <trip id="292" depart="137.24" from="3/1to2/1" to="2/1to1/1"/>
    <trip id="293" depart="137.71" from="2/3to1/3" to="2/1to3/1"/>
    <trip id="294" depart="138.18" from="1/0to2/0" to="1/1to1/0"/>
    <trip id="295" depart="138.65" from="2/3to1/3" to="1/1to0/1"/>
    <trip id="296" depart="139.12" from="0/2to1/2" to="2/3to2/2"/>
    <trip id="297" depart="139.59" from="1/0to0/0" to="1/0to1/1"/>
    <trip id="298" depart="140.06" from="2/1to2/0" to="1/0to0/0"/>
    <trip id="299" depart="140.53" from="2/1to2/2" to="0/2to1/2"/>
    <trip id="300" depart="141.00" from="2/0to1/0" to="1/1to1/2"/>
    <trip id="301" depart="141.47" from="1/0to1/1" to="1/1to0/1"/>
    <trip id="302" depart="141.94" from="1/2to1/1" to="1/3to2/3"/>
    <trip id="303" depart="142.41" from="3/0to2/0" to="0/1to1/1"/>
    <trip id="304" depart="142.88" from="0/1to0/0" to="1/1to2/1"/>
    <trip id="305" depart="143.35" from="1/0to1/1" to="0/0to1/0"/>
    <trip id="306" depart="143.82" from="3/0to3/1" to="3/1to2/1"/>
    <trip id="307" depart="144.29" from="0/1to0/2" to="2/2to1/2"/>
    <trip id="308" depart="144.76" from="0/1to1/1" to="1/2to1/3"/>
    <trip id="309" depart="145.23" from="1/2to1/3" to="0/0to0/1"/>
    <trip id="310" depart="145.70" from="1/2to1/3" to="0/1to0/0"/>
    <trip id="311" depart="146.17" from="2/3to2/2" to="2/2to2/3"/>
    <trip id="312" depart="146.64" from="2/2to2/1" to="0/2to1/2"/>
    <trip id="313" depart="147.11" from="2/2to2/1" to="0/3to1/3"/>
    <trip id="314" depart="147.58" from="2/0to2/1" to="2/2to2/1"/>
    <trip id="315" depart="148.05" from="3/3to2/3" to="2/3to1/3"/>
    <trip id="316" depart="148.52" from="0/2to0/3" to="1/1to1/2"/>
    <trip id="317" depart="148.99" from="0/1to0/2" to="2/2to3/2"/>
    <trip id="318" depart="149.46" from="2/2to2/3" to="0/3to1/3"/>
    <trip id="319" depart="149.93" from="2/0to2/1" to="1/2to1/1"/>
    <trip id="320" depart="150.40" from="2/1to2/0" to="1/0to2/0"/>
    <trip id="321" depart="150.87" from="3/2to3/1" to="0/3to1/3"/>
    <trip id="322" depart="151.34" from="3/2to3/1" to="0/3to1/3"/>
    <trip id="323" depart="151.81" from="1/3to2/3" to="0/0to0/1"/>
    <trip id="324" depart="152.28" from="2/0to3/0" to="2/1to3/1"/>
    <trip id="325" depart="152.75" from="1/3to0/3" to="2/2to2/1"/>
    <trip id="326" depart="153.22" from="3/3to3/2" to="2/3to2/2"/>
    <trip id="327" depart="153.69" from="1/2to2/2" to="3/1to3/0"/>
    <trip id="328" depart="154.16" from="3/3to3/2" to="1/1to0/1"/>
    <trip id="329" depart="154.63" from="3/1to2/1" to="1/1to2/1"/>
    <trip id="330" depart="155.10" from="1/1to1/2" to="1/0to1/1"/>
    <trip id="331" depart="155.57" from="1/1to0/1" to="3/2to3/3"/>
    <trip id="332" depart="156.04" from="2/1to1/1" to="3/2to2/2"/>
    <trip id="333" depart="156.51" from="2/2to3/2" to="1/1to1/2"/>
    <trip id="334" depart="156.98" from="1/1to0/1" to="2/1to2/0"/>
    <trip id="335" depart="157.45" from="2/3to1/3" to="2/3to1/3"/>
    <trip id="336" depart="157.92" from="2/3to1/3" to="1/1to1/0"/>
    <trip id="337" depart="158.39" from="2/0to2/1" to="0/2to1/2"/>
    <trip id="338" depart="158.86" from="1/3to0/3" to="2/2to2/3"/>
    <trip id="339" depart="159.33" from="1/1to1/0" to="3/0to2/0"/>
    <trip id="340" depart="159.80" from="0/3to1/3" to="2/2to2/3"/>
    <trip id="341" depart="160.27" from="1/2to0/2" to="2/2to2/3"/>
    <trip id="342" depart="160.74" from="3/1to3/0" to="2/0to3/0"/>
    <trip id="343" depart="161.21" from="3/2to2/2" to="0/1to1/1"/>
    <trip id="344" depart="161.68" from="1/3to1/2" to="3/1to3/2"/>
    <trip id="345" depart="162.15" from="1/2to2/2" to="2/3to2/2"/>
    <trip id="346" depart="162.62" from="0/2to1/2" to="3/1to2/1"/>
    <trip id="347" depart="163.09" from="3/1to3/2" to="0/3to0/2"/>
    <trip id="348" depart="163.56" from="0/3to0/2" to="0/1to0/2"/>
    <trip id="349" depart="164.03" from="0/1to0/0" to="0/3to1/3"/>
    <trip id="350" depart="164.50" from="1/3to1/2" to="3/2to2/2"/>
    <trip id="351" depart="164.97" from="0/2to1/2" to="1/3to2/3"/>
    <trip id="352" depart="165.44" from="0/1to0/2" to="2/2to3/2"/>
    <trip id="353" depart="165.91" from="1/1to0/1" to="2/2to2/3"/>
    <trip id="354" depart="166.38" from="3/3to2/3" to="3/2to2/2"/>
    <trip id="355" depart="166.85" from="1/0to2/0" to="1/2to2/2"/>
    <trip id="356" depart="167.32" from="2/3to1/3" to="0/3to0/2"/>
    <trip id="357" depart="167.79" from="3/0to3/1" to="0/2to1/2"/>
    <trip id="358" depart="168.26" from="2/1to3/1" to="1/0to2/0"/>
    <trip id="359" depart="168.73" from="2/0to3/0" to="3/0to3/1"/>
    <trip id="360" depart="169.20" from="0/3to1/3" to="3/0to2/0"/>
    <trip id="361" depart="169.67" from="3/1to3/0" to="0/0to0/1"/>
    <trip id="362" depart="170.14" from="2/1to1/1" to="0/1to0/2"/>
    <trip id="363" depart="170.61" from="1/2to1/1" to="2/3to3/3"/>
    <trip id="364" depart="171.08" from="2/1to3/1" to="0/3to0/2"/>
    <trip id="365" depart="171.55" from="1/0to2/0" to="2/1to2/0"/>
    <trip id="366" depart="172.02" from="1/2to0/2" to="3/1to2/1"/>
    <trip id="367" depart="172.49" from="0/3to1/3" to="1/3to1/2"/>
    <trip id="368" depart="172.96" from="0/2to1/2" to="3/3to2/3"/>
    <trip id="369" depart="173.43" from="2/3to2/2" to="0/2to1/2"/>
    <trip id="370" depart="173.90" from="3/3to2/3" to="1/2to0/2"/>
    <trip id="371" depart="174.37" from="3/2to3/3" to="1/2to0/2"/>
    <trip id="372" depart="174.84" from="2/0to1/0" to="3/2to3/3"/>
    <trip id="373" depart="175.31" from="3/2to3/3" to="2/1to3/1"/>
    <trip id="374" depart="175.78" from="2/0to2/1" to="1/0to1/1"/>
    <trip id="375" depart="176.25" from="2/0to3/0" to="2/2to2/3"/>
    <trip id="376" depart="176.72" from="2/3to3/3" to="2/2to3/2"/>
    <trip id="377" depart="177.19" from="0/1to0/0" to="3/1to2/1"/>
    <trip id="378" depart="177.66" from="2/1to2/2" to="0/2to0/3"/>
    <trip id="379" depart="178.13" from="0/1to0/0" to="0/2to1/2"/>
    <trip id="380" depart="178.60" from="2/0to1/0" to="2/3to1/3"/>
    <trip id="381" depart="179.07" from="0/0to1/0" to="2/1to2/0"/>
    <trip id="382" depart="179.54" from="2/0to2/1" to="2/1to2/2"/>
    <trip id="383" depart="180.01" from="2/2to3/2" to="2/2to2/1"/>
    <trip id="384" depart="180.48" from="2/0to3/0" to="2/0to3/0"/>
    <trip id="385" depart="180.95" from="1/3to1/2" to="0/1to1/1"/>
    <trip id="386" depart="181.42" from="0/2to0/1" to="0/1to0/0"/>
    <trip id="387" depart="181.89" from="1/0to1/1" to="2/3to2/2"/>
    <trip id="388" depart="182.36" from="0/1to0/0" to="2/2to1/2"/>
    <trip id="389" depart="182.83" from="1/2to2/2" to="3/3to2/3"/>
    <trip id="390" depart="183.30" from="1/3to1/2" to="2/1to1/1"/>
    <trip id="391" depart="183.77" from="2/1to2/2" to="1/2to1/1"/>
    <trip id="392" depart="184.24" from="2/2to2/3" to="0/2to0/1"/>
    <trip id="393" depart="184.71" from="1/3to1/2" to="1/0to0/0"/>
    <trip id="394" depart="185.18" from="2/0to1/0" to="0/1to0/2"/>
    <trip id="395" depart="185.65" from="2/0to3/0" to="1/2to2/2"/>
    <trip id="396" depart="186.12" from="1/3to1/2" to="2/2to1/2"/>
    <trip id="397" depart="186.59" from="1/2to1/1" to="2/0to1/0"/>
    <trip id="398" depart="187.06" from="1/1to0/1" to="0/2to1/2"/>
    <trip id="399" depart="187.53" from="1/2to2/2" to="0/3to1/3"/>
    <trip id="400" depart="188.00" from="0/0to0/1" to="2/0to3/0"/>
    <trip id="401" depart="188.47" from="3/2to3/3" to="2/0to3/0"/>
    <trip id="402" depart="188.94" from="3/3to3/2" to="3/0to2/0"/>
    <trip id="403" depart="189.41" from="2/0to3/0" to="2/0to3/0"/>
    <trip id="404" depart="189.88" from="0/0to1/0" to="1/2to1/3"/>
    <trip id="405" depart="190.35" from="2/1to2/2" to="1/0to2/0"/>
    <trip id="406" depart="190.82" from="3/2to3/3" to="1/1to0/1"/>
    <trip id="407" depart="191.29" from="1/0to1/1" to="3/0to3/1"/>
    <trip id="408" depart="191.76" from="2/1to3/1" to="1/1to1/2"/>
    <trip id="409" depart="192.23" from="0/1to0/2" to="3/2to3/3"/>
    <trip id="410" depart="192.70" from="1/2to0/2" to="0/2to1/2"/>
    <trip id="411" depart="193.17" from="1/3to0/3" to="1/0to1/1"/>
    <trip id="412" depart="193.64" from="3/2to3/1" to="0/1to1/1"/>
    <trip id="413" depart="194.11" from="1/1to2/1" to="3/3to3/2"/>
    <trip id="414" depart="194.58" from="2/1to2/0" to="3/2to3/1"/>
    <trip id="415" depart="195.05" from="0/0to0/1" to="3/1to2/1"/>
    <trip id="416" depart="195.52" from="0/0to1/0" to="1/3to0/3"/>
    <trip id="417" depart="195.99" from="2/2to3/2" to="2/3to3/3"/>
    <trip id="418" depart="196.46" from="1/1to1/2" to="0/3to0/2"/>
    <trip id="419" depart="196.93" from="2/1to2/2" to="3/3to2/3"/>
    <trip id="420" depart="197.40" from="1/2to1/3" to="2/3to1/3"/>
    <trip id="421" depart="197.87" from="1/3to2/3" to="1/0to2/0"/>
    <trip id="422" depart="198.34" from="3/2to3/1" to="1/2to0/2"/>
    <trip id="423" depart="198.81" from="1/0to2/0" to="1/1to1/2"/>
    <trip id="424" depart="199.28" from="2/1to2/0" to="1/0to1/1"/>
    <trip id="425" depart="199.75" from="2/1to1/1" to="3/1to3/2"/>
    <trip id="426" depart="200.22" from="3/2to3/1" to="3/2to3/1"/>
    <trip id="427" depart="200.69" from="2/1to1/1" to="1/2to1/3"/>
    <trip id="428" depart="201.16" from="0/0to1/0" to="0/1to0/2"/>
    <trip id="429" depart="201.63" from="2/0to3/0" to="1/1to1/0"/>
    <trip id="430" depart="202.10" from="3/0to2/0" to="3/3to2/3"/>
    <trip id="431" depart="202.57" from="3/0to3/1" to="0/1to0/2"/>
    <trip id="432" depart="203.04" from="0/1to1/1" to="1/3to2/3"/>
    <trip id="433" depart="203.51" from="3/3to2/3" to="1/0to1/1"/>
    <trip id="434" depart="203.98" from="2/0to2/1" to="2/2to2/3"/>
    <trip id="435" depart="204.45" from="1/3to0/3" to="1/0to2/0"/>
    <trip id="436" depart="204.92" from="2/2to2/3" to="0/1to1/1"/>
    <trip id="437" depart="205.39" from="0/1to1/1" to="3/1to3/0"/>
    <trip id="438" depart="205.86" from="3/2to3/1" to="1/0to1/1"/>
    <trip id="439" depart="206.33" from="0/2to0/3" to="2/2to3/2"/>
    <trip id="440" depart="206.80" from="1/2to1/3" to="0/0to0/1"/>
    <trip id="441" depart="207.27" from="0/2to1/2" to="2/2to3/2"/>
    <trip id="442" depart="207.74" from="1/3to1/2" to="2/0to3/0"/>
    <trip id="443" depart="208.21" from="1/1to2/1" to="3/1to3/2"/>
    <trip id="444" depart="208.68" from="2/0to1/0" to="0/0to0/1"/>
    <trip id="445" depart="209.15" from="1/2to0/2" to="2/1to1/1"/>
    <trip id="446" depart="209.62" from="3/0to2/0" to="2/1to1/1"/>
    <trip id="447" depart="210.09" from="2/2to2/3" to="0/1to0/0"/>