<?xml version="1.0" encoding="UTF-8"?>

<!-- generated on 08/19/18 05:35:15 by SUMO duarouter Version 0.32.0
<?xml version="1.0" encoding="UTF-8"?>

<configuration xmlns:xsi="http://www.w3.org/2001/XMLSchema-instance" xsi:noNamespaceSchemaLocation="http://sumo.dlr.de/xsd/duarouterConfiguration.xsd">

    <input>
        <net-file value="newnet.net.xml"/>
        <route-files value="trips.trips.xml"/>
    </input>

    <output>
        <output-file value="newnet.rou.xml"/>
        <alternatives-output value="newnet.rou.alt.xml"/>
    </output>

    <processing>
        <ignore-errors value="true"/>
    </processing>

    <time>
        <begin value="0"/>
        <end value="800.0"/>
    </time>

    <report>
        <no-warnings value="true"/>
        <no-step-log value="true"/>
    </report>

</configuration>
-->

<routes xmlns:xsi="http://www.w3.org/2001/XMLSchema-instance" xsi:noNamespaceSchemaLocation="http://sumo.dlr.de/xsd/routes_file.xsd">
    <vehicle id="0" depart="0.00">
        <route edges="-road1 -road4"/>
    </vehicle>
    <vehicle id="1" depart="1.20">
        <route edges="road4 -road2"/>
    </vehicle>
    <vehicle id="2" depart="2.40">
        <route edges="road2 road1"/>
    </vehicle>
    <vehicle id="5" depart="6.00">
        <route edges="-road1 -road4"/>
    </vehicle>
    <vehicle id="6" depart="7.20">
        <route edges="road4 -road2"/>
    </vehicle>
    <vehicle id="7" depart="8.40">
        <route edges="-road1 -road4"/>
    </vehicle>
    <vehicle id="9" depart="10.80">
        <route edges="road2 -road4"/>
    </vehicle>
    <vehicle id="10" depart="12.00">
        <route edges="road3 -road4"/>
    </vehicle>
    <vehicle id="11" depart="13.20">
        <route edges="road4 -road3"/>
    </vehicle>
    <vehicle id="12" depart="14.40">
        <route edges="-road1 -road4"/>
    </vehicle>
    <vehicle id="13" depart="15.60">
        <route edges="road3 -road2"/>
    </vehicle>
    <vehicle id="14" depart="16.80">
        <route edges="road3 -road2"/>
    </vehicle>
    <vehicle id="15" depart="18.00">
        <route edges="road2 -road3"/>
    </vehicle>
    <vehicle id="16" depart="19.20">
        <route edges="road3 -road2"/>
    </vehicle>
    <vehicle id="17" depart="20.40">
        <route edges="road3 road1"/>
    </vehicle>
    <vehicle id="18" depart="21.60">
        <route edges="-road1 -road2"/>
    </vehicle>
    <vehicle id="21" depart="25.20">
        <route edges="-road1 -road3"/>
    </vehicle>
    <vehicle id="22" depart="26.40">
        <route edges="road4 -road2"/>
    </vehicle>
    <vehicle id="23" depart="27.60">
        <route edges="road2 -road3"/>
    </vehicle>
    <vehicle id="24" depart="28.80">
        <route edges="road4 -road2"/>
    </vehicle>
    <vehicle id="28" depart="33.60">
        <route edges="road3 -road2"/>
    </vehicle>
    <vehicle id="29" depart="34.80">
        <route edges="road2 -road3"/>
    </vehicle>
    <vehicle id="30" depart="36.00">
        <route edges="road4 road1"/>
    </vehicle>
    <vehicle id="31" depart="37.20">
        <route edges="road3 -road2"/>
    </vehicle>
    <vehicle id="32" depart="38.40">
        <route edges="road3 road1"/>
    </vehicle>
    <vehicle id="33" depart="39.60">
        <route edges="road2 road1"/>
    </vehicle>
    <vehicle id="34" depart="40.80">
        <route edges="road3 road1"/>
    </vehicle>
    <vehicle id="35" depart="42.00">
        <route edges="road3 road1"/>
    </vehicle>
    <vehicle id="36" depart="43.20">
        <route edges="-road1 -road4"/>
    </vehicle>
    <vehicle id="37" depart="44.40">
        <route edges="road4 -road3"/>
    </vehicle>
    <vehicle id="38" depart="45.60">
        <route edges="-road1 -road3"/>
    </vehicle>
    <vehicle id="41" depart="49.20">
        <route edges="-road1 -road4"/>
    </vehicle>
    <vehicle id="42" depart="50.40">
        <route edges="-road1 -road3"/>
    </vehicle>
    <vehicle id="43" depart="51.60">
        <route edges="road3 -road4"/>
    </vehicle>
    <vehicle id="44" depart="52.80">
        <route edges="road3 -road2"/>
    </vehicle>
    <vehicle id="45" depart="54.00">
        <route edges="road2 -road4"/>
    </vehicle>
    <vehicle id="46" depart="55.20">
        <route edges="road4 -road3"/>
    </vehicle>
    <vehicle id="47" depart="56.40">
        <route edges="road2 road1"/>
    </vehicle>
    <vehicle id="50" depart="60.00">
        <route edges="-road1 -road3"/>
    </vehicle>
    <vehicle id="51" depart="61.20">
        <route edges="road4 road1"/>
    </vehicle>
    <vehicle id="52" depart="62.40">
        <route edges="road2 road1"/>
    </vehicle>
    <vehicle id="53" depart="63.60">
        <route edges="road2 -road4"/>
    </vehicle>
    <vehicle id="56" depart="67.20">
        <route edges="road2 road1"/>
    </vehicle>
    <vehicle id="57" depart="68.40">
        <route edges="road2 -road4"/>
    </vehicle>
    <vehicle id="58" depart="69.60">
        <route edges="-road1 -road2"/>
    </vehicle>
    <vehicle id="59" depart="70.80">
        <route edges="-road1 -road3"/>
    </vehicle>
    <vehicle id="60" depart="72.00">
        <route edges="road4 -road3"/>
    </vehicle>
    <vehicle id="61" depart="73.20">
        <route edges="road4 road1"/>
    </vehicle>
    <vehicle id="63" depart="75.60">
        <route edges="-road1 -road4"/>
    </vehicle>
    <vehicle id="64" depart="76.80">
        <route edges="road4 -road3"/>
    </vehicle>
    <vehicle id="65" depart="78.00">
        <route edges="road3 -road4"/>
    </vehicle>
    <vehicle id="66" depart="79.20">
        <route edges="-road1 -road4"/>
    </vehicle>
    <vehicle id="67" depart="80.40">
        <route edges="road4 road1"/>
    </vehicle>
    <vehicle id="69" depart="82.80">
        <route edges="road2 -road3"/>
    </vehicle>
    <vehicle id="70" depart="84.00">
        <route edges="road3 road1"/>
    </vehicle>
    <vehicle id="71" depart="85.20">
        <route edges="road2 -road4"/>
    </vehicle>
    <vehicle id="72" depart="86.40">
        <route edges="road4 road1"/>
    </vehicle>
    <vehicle id="73" depart="87.60">
        <route edges="road3 -road2"/>
    </vehicle>
    <vehicle id="74" depart="88.80">
        <route edges="road4 -road3"/>
    </vehicle>
    <vehicle id="75" depart="90.00">
        <route edges="road3 -road2"/>
    </vehicle>
    <vehicle id="76" depart="91.20">
        <route edges="road4 road1"/>
    </vehicle>
    <vehicle id="77" depart="92.40">
        <route edges="road2 -road3"/>
    </vehicle>
    <vehicle id="78" depart="93.60">
        <route edges="-road1 -road4"/>
    </vehicle>
    <vehicle id="80" depart="96.00">
        <route edges="-road1 -road4"/>
    </vehicle>
    <vehicle id="81" depart="97.20">
        <route edges="-road1 -road2"/>
    </vehicle>
    <vehicle id="82" depart="98.40">
        <route edges="road4 -road3"/>
    </vehicle>
    <vehicle id="83" depart="99.60">
        <route edges="road2 road1"/>
    </vehicle>
    <vehicle id="85" depart="102.00">
        <route edges="road3 -road4"/>
    </vehicle>
    <vehicle id="86" depart="103.20">
        <route edges="road2 -road4"/>
    </vehicle>
    <vehicle id="87" depart="104.40">
        <route edges="road4 -road3"/>
    </vehicle>
    <vehicle id="88" depart="105.60">
        <route edges="road2 -road3"/>
    </vehicle>
    <vehicle id="90" depart="108.00">
        <route edges="road4 road1"/>
    </vehicle>
    <vehicle id="92" depart="110.40">
        <route edges="road3 -road4"/>
    </vehicle>
    <vehicle id="93" depart="111.60">
        <route edges="road2 road1"/>
    </vehicle>
    <vehicle id="94" depart="112.80">
        <route edges="road3 road1"/>
    </vehicle>
    <vehicle id="95" depart="114.00">
        <route edges="road3 road1"/>
    </vehicle>
    <vehicle id="96" depart="115.20">
        <route edges="road4 -road2"/>
    </vehicle>
    <vehicle id="97" depart="116.40">
        <route edges="road2 -road3"/>
    </vehicle>
    <vehicle id="98" depart="117.60">
        <route edges="road2 -road4"/>
    </vehicle>
    <vehicle id="99" depart="118.80">
        <route edges="road2 -road3"/>
    </vehicle>
    <vehicle id="100" depart="120.00">
        <route edges="road3 -road4"/>
    </vehicle>
    <vehicle id="101" depart="121.20">
        <route edges="road2 -road4"/>
    </vehicle>
    <vehicle id="102" depart="122.40">
        <route edges="road2 -road3"/>
    </vehicle>
    <vehicle id="103" depart="123.60">
        <route edges="road2 road1"/>
    </vehicle>
    <vehicle id="105" depart="126.00">
        <route edges="road2 -road4"/>
    </vehicle>
    <vehicle id="106" depart="127.20">
        <route edges="-road1 -road4"/>
    </vehicle>
    <vehicle id="107" depart="128.40">
        <route edges="road3 -road2"/>
    </vehicle>
    <vehicle id="108" depart="129.60">
        <route edges="-road1 -road3"/>
    </vehicle>
    <vehicle id="109" depart="130.80">
        <route edges="road3 -road2"/>
    </vehicle>
    <vehicle id="110" depart="132.00">
        <route edges="road3 -road4"/>
    </vehicle>
    <vehicle id="111" depart="133.20">
        <route edges="road4 -road2"/>
    </vehicle>
    <vehicle id="112" depart="134.40">
        <route edges="road2 road1"/>
    </vehicle>
    <vehicle id="113" depart="135.60">
        <route edges="road4 -road2"/>
    </vehicle>
    <vehicle id="114" depart="136.80">
        <route edges="road2 road1"/>
    </vehicle>
    <vehicle id="115" depart="138.00">
        <route edges="-road1 -road4"/>
    </vehicle>
    <vehicle id="117" depart="140.40">
        <route edges="road4 -road3"/>
    </vehicle>
    <vehicle id="121" depart="145.20">
        <route edges="road2 road1"/>
    </vehicle>
    <vehicle id="122" depart="146.40">
        <route edges="road4 -road2"/>
    </vehicle>
    <vehicle id="123" depart="147.60">
        <route edges="road2 -road4"/>
    </vehicle>
    <vehicle id="124" depart="148.80">
        <route edges="road4 -road3"/>
    </vehicle>
    <vehicle id="125" depart="150.00">
        <route edges="road2 -road3"/>
    </vehicle>
    <vehicle id="128" depart="153.60">
        <route edges="road2 -road4"/>
    </vehicle>
    <vehicle id="129" depart="154.80">
        <route edges="-road1 -road4"/>
    </vehicle>
    <vehicle id="130" depart="156.00">
        <route edges="road2 road1"/>
    </vehicle>
    <vehicle id="131" depart="157.20">
        <route edges="road4 road1"/>
    </vehicle>
    <vehicle id="132" depart="158.40">
        <route edges="-road1 -road3"/>
    </vehicle>
    <vehicle id="134" depart="160.80">
        <route edges="road3 -road4"/>
    </vehicle>
    <vehicle id="135" depart="162.00">
        <route edges="road4 road1"/>
    </vehicle>
    <vehicle id="136" depart="163.20">
        <route edges="road2 -road3"/>
    </vehicle>
    <vehicle id="137" depart="164.40">
        <route edges="road4 road1"/>
    </vehicle>
    <vehicle id="141" depart="169.20">
        <route edges="road4 -road3"/>
    </vehicle>
    <vehicle id="142" depart="170.40">
        <route edges="-road1 -road4"/>
    </vehicle>
    <vehicle id="143" depart="171.60">
        <route edges="-road1 -road2"/>
    </vehicle>
    <vehicle id="144" depart="172.80">
        <route edges="road2 -road4"/>
    </vehicle>
    <vehicle id="145" depart="174.00">
        <route edges="road3 -road2"/>
    </vehicle>
    <vehicle id="146" depart="175.20">
        <route edges="road4 road1"/>
    </vehicle>
    <vehicle id="147" depart="176.40">
        <route edges="road3 -road2"/>
    </vehicle>
    <vehicle id="148" depart="177.60">
        <route edges="road4 -road2"/>
    </vehicle>
    <vehicle id="150" depart="180.00">
        <route edges="road3 -road2"/>
    </vehicle>
    <vehicle id="152" depart="182.40">
        <route edges="road2 -road4"/>
    </vehicle>
    <vehicle id="153" depart="183.60">
        <route edges="road4 -road3"/>
    </vehicle>
    <vehicle id="155" depart="186.00">
        <route edges="road4 road1"/>
    </vehicle>
    <vehicle id="156" depart="187.20">
        <route edges="road3 road1"/>
    </vehicle>
    <vehicle id="157" depart="188.40">
        <route edges="road2 -road4"/>
    </vehicle>
    <vehicle id="160" depart="192.00">
        <route edges="-road1 -road3"/>
    </vehicle>
    <vehicle id="162" depart="194.40">
        <route edges="-road1 -road2"/>
    </vehicle>
    <vehicle id="163" depart="195.60">
        <route edges="road2 -road4"/>
    </vehicle>
    <vehicle id="164" depart="196.80">
        <route edges="road3 road1"/>
    </vehicle>
    <vehicle id="166" depart="199.20">
        <route edges="-road1 -road2"/>
    </vehicle>
    <vehicle id="167" depart="200.40">
        <route edges="road2 road1"/>
    </vehicle>
    <vehicle id="168" depart="201.60">
        <route edges="road2 -road3"/>
    </vehicle>
    <vehicle id="169" depart="202.80">
        <route edges="road2 -road3"/>
    </vehicle>
    <vehicle id="170" depart="204.00">
        <route edges="road2 road1"/>
    </vehicle>
    <vehicle id="172" depart="206.40">
        <route edges="-road1 -road2"/>
    </vehicle>
    <vehicle id="173" depart="207.60">
        <route edges="road4 -road3"/>
    </vehicle>
    <vehicle id="174" depart="208.80">
        <route edges="road4 -road3"/>
    </vehicle>
    <vehicle id="175" depart="210.00">
        <route edges="road2 -road3"/>
    </vehicle>
    <vehicle id="176" depart="211.20">
        <route edges="-road1 -road3"/>
    </vehicle>
    <vehicle id="177" depart="212.40">
        <route edges="road2 -road3"/>
    </vehicle>
    <vehicle id="178" depart="213.60">
        <route edges="road3 road1"/>
    </vehicle>
    <vehicle id="179" depart="214.80">
        <route edges="road4 -road2"/>
    </vehicle>
    <vehicle id="180" depart="216.00">
        <route edges="road4 -road2"/>
    </vehicle>
    <vehicle id="183" depart="219.60">
        <route edges="-road1 -road4"/>
    </vehicle>
    <vehicle id="184" depart="220.80">
        <route edges="-road1 -road3"/>
    </vehicle>
    <vehicle id="185" depart="222.00">
        <route edges="road2 -road3"/>
    </vehicle>
    <vehicle id="189" depart="226.80">
        <route edges="road3 road1"/>
    </vehicle>
    <vehicle id="190" depart="228.00">
        <route edges="road3 -road2"/>
    </vehicle>
    <vehicle id="191" depart="229.20">
        <route edges="road4 road1"/>
    </vehicle>
    <vehicle id="194" depart="232.80">
        <route edges="-road1 -road2"/>
    </vehicle>
    <vehicle id="195" depart="234.00">
        <route edges="road3 road1"/>
    </vehicle>
    <vehicle id="196" depart="235.20">
        <route edges="road2 -road3"/>
    </vehicle>
    <vehicle id="197" depart="236.40">
        <route edges="road3 road1"/>
    </vehicle>
    <vehicle id="198" depart="237.60">
        <route edges="road2 -road4"/>
    </vehicle>
    <vehicle id="200" depart="240.00">
        <route edges="road4 -road3"/>
    </vehicle>
    <vehicle id="201" depart="241.20">
        <route edges="-road1 -road4"/>
    </vehicle>
    <vehicle id="202" depart="242.40">
        <route edges="road4 -road3"/>
    </vehicle>
    <vehicle id="203" depart="243.60">
        <route edges="road2 road1"/>
    </vehicle>
    <vehicle id="205" depart="246.00">
        <route edges="road2 -road3"/>
    </vehicle>
    <vehicle id="206" depart="247.20">
        <route edges="road4 -road2"/>
    </vehicle>
    <vehicle id="207" depart="248.40">
        <route edges="road3 road1"/>
    </vehicle>
    <vehicle id="211" depart="253.20">
        <route edges="road4 -road3"/>
    </vehicle>
    <vehicle id="214" depart="256.80">
        <route edges="-road1 -road4"/>
    </vehicle>
    <vehicle id="215" depart="258.00">
        <route edges="road2 road1"/>
    </vehicle>
    <vehicle id="216" depart="259.20">
        <route edges="road4 -road2"/>
    </vehicle>
    <vehicle id="217" depart="260.40">
        <route edges="road3 -road2"/>
    </vehicle>
    <vehicle id="218" depart="261.60">
        <route edges="road4 -road3"/>
    </vehicle>
    <vehicle id="219" depart="262.80">
        <route edges="-road1 -road3"/>
    </vehicle>
    <vehicle id="220" depart="264.00">
        <route edges="road2 -road4"/>
    </vehicle>
    <vehicle id="221" depart="265.20">
        <route edges="road4 road1"/>
    </vehicle>
    <vehicle id="222" depart="266.40">
        <route edges="road4 -road2"/>
    </vehicle>
    <vehicle id="225" depart="270.00">
        <route edges="road4 -road2"/>
    </vehicle>
    <vehicle id="226" depart="271.20">
        <route edges="road2 -road3"/>
    </vehicle>
    <vehicle id="228" depart="273.60">
        <route edges="road3 -road4"/>
    </vehicle>
    <vehicle id="229" depart="274.80">
        <route edges="road2 -road3"/>
    </vehicle>
    <vehicle id="230" depart="276.00">
        <route edges="-road1 -road4"/>
    </vehicle>
    <vehicle id="231" depart="277.20">
        <route edges="road4 -road2"/>
    </vehicle>
    <vehicle id="232" depart="278.40">
        <route edges="road4 road1"/>
    </vehicle>
    <vehicle id="233" depart="279.60">
        <route edges="road2 road1"/>
    </vehicle>
    <vehicle id="234" depart="280.80">
        <route edges="road4 -road3"/>
    </vehicle>
    <vehicle id="235" depart="282.00">
        <route edges="-road1 -road4"/>
    </vehicle>
    <vehicle id="236" depart="283.20">
        <route edges="-road1 -road3"/>
    </vehicle>
    <vehicle id="237" depart="284.40">
        <route edges="road4 -road2"/>
    </vehicle>
    <vehicle id="238" depart="285.60">
        <route edges="road3 -road2"/>
    </vehicle>
    <vehicle id="239" depart="286.80">
        <route edges="road3 -road2"/>
    </vehicle>
    <vehicle id="240" depart="288.00">
        <route edges="-road1 -road4"/>
    </vehicle>
    <vehicle id="241" depart="289.20">
        <route edges="road2 road1"/>
    </vehicle>
    <vehicle id="242" depart="290.40">
        <route edges="road2 -road4"/>
    </vehicle>
    <vehicle id="243" depart="291.60">
        <route edges="-road1 -road4"/>
    </vehicle>
    <vehicle id="246" depart="295.20">
        <route edges="-road1 -road4"/>
    </vehicle>
    <vehicle id="247" depart="296.40">
        <route edges="road3 -road2"/>
    </vehicle>
    <vehicle id="248" depart="297.60">
        <route edges="-road1 -road4"/>
    </vehicle>
    <vehicle id="251" depart="301.20">
        <route edges="road3 -road4"/>
    </vehicle>
    <vehicle id="252" depart="302.40">
        <route edges="road3 -road4"/>
    </vehicle>
    <vehicle id="253" depart="303.60">
        <route edges="road4 -road2"/>
    </vehicle>
    <vehicle id="254" depart="304.80">
        <route edges="road3 -road4"/>
    </vehicle>
    <vehicle id="257" depart="308.40">
        <route edges="-road1 -road3"/>
    </vehicle>
    <vehicle id="258" depart="309.60">
        <route edges="road3 road1"/>
    </vehicle>
    <vehicle id="259" depart="310.80">
        <route edges="road2 -road4"/>
    </vehicle>
    <vehicle id="261" depart="313.20">
        <route edges="road4 -road2"/>
    </vehicle>
    <vehicle id="262" depart="314.40">
        <route edges="road2 -road3"/>
    </vehicle>
    <vehicle id="263" depart="315.60">
        <route edges="road4 road1"/>
    </vehicle>
    <vehicle id="264" depart="316.80">
        <route edges="-road1 -road4"/>
    </vehicle>
    <vehicle id="265" depart="318.00">
        <route edges="road4 -road3"/>
    </vehicle>
    <vehicle id="266" depart="319.20">
        <route edges="road4 -road2"/>
    </vehicle>
    <vehicle id="267" depart="320.40">
        <route edges="road3 road1"/>
    </vehicle>
    <vehicle id="268" depart="321.60">
        <route edges="road3 -road2"/>
    </vehicle>
    <vehicle id="269" depart="322.80">
        <route edges="road3 -road2"/>
    </vehicle>
    <vehicle id="270" depart="324.00">
        <route edges="-road1 -road4"/>
    </vehicle>
    <vehicle id="271" depart="325.20">
        <route edges="-road1 -road3"/>
    </vehicle>
    <vehicle id="272" depart="326.40">
        <route edges="-road1 -road3"/>
    </vehicle>
    <vehicle id="274" depart="328.80">
        <route edges="road3 road1"/>
    </vehicle>
    <vehicle id="275" depart="330.00">
        <route edges="road2 road1"/>
    </vehicle>
    <vehicle id="276" depart="331.20">
        <route edges="-road1 -road2"/>
    </vehicle>
    <vehicle id="279" depart="334.80">
        <route edges="road3 road1"/>
    </vehicle>
    <vehicle id="280" depart="336.00">
        <route edges="-road1 -road2"/>
    </vehicle>
    <vehicle id="281" depart="337.20">
        <route edges="-road1 -road2"/>
    </vehicle>
    <vehicle id="283" depart="339.60">
        <route edges="road2 -road3"/>
    </vehicle>
    <vehicle id="284" depart="340.80">
        <route edges="-road1 -road3"/>
    </vehicle>
    <vehicle id="285" depart="342.00">
        <route edges="road3 -road4"/>
    </vehicle>
    <vehicle id="286" depart="343.20">
        <route edges="road4 road1"/>
    </vehicle>
    <vehicle id="287" depart="344.40">
        <route edges="road4 -road3"/>
    </vehicle>
    <vehicle id="288" depart="345.60">
        <route edges="-road1 -road3"/>
    </vehicle>
    <vehicle id="290" depart="348.00">
        <route edges="road2 road1"/>
    </vehicle>
    <vehicle id="291" depart="349.20">
        <route edges="road2 road1"/>
    </vehicle>
    <vehicle id="292" depart="350.40">
        <route edges="-road1 -road3"/>
    </vehicle>
    <vehicle id="293" depart="351.60">
        <route edges="road4 -road2"/>
    </vehicle>
    <vehicle id="295" depart="354.00">
        <route edges="road4 -road2"/>
    </vehicle>
    <vehicle id="297" depart="356.40">
        <route edges="-road1 -road2"/>
    </vehicle>
    <vehicle id="299" depart="358.80">
        <route edges="-road1 -road3"/>
    </vehicle>
    <vehicle id="300" depart="360.00">
        <route edges="road4 -road3"/>
    </vehicle>
    <vehicle id="302" depart="362.40">
        <route edges="-road1 -road3"/>
    </vehicle>
    <vehicle id="304" depart="364.80">
        <route edges="road3 -road2"/>
    </vehicle>
    <vehicle id="305" depart="366.00">
        <route edges="road3 -road4"/>
    </vehicle>
    <vehicle id="307" depart="368.40">
        <route edges="road4 road1"/>
    </vehicle>
    <vehicle id="308" depart="369.60">
        <route edges="road2 -road3"/>
    </vehicle>
    <vehicle id="309" depart="370.80">
        <route edges="-road1 -road4"/>
    </vehicle>
    <vehicle id="310" depart="372.00">
        <route edges="road4 -road3"/>
    </vehicle>
    <vehicle id="311" depart="373.20">
        <route edges="road3 -road4"/>
    </vehicle>
    <vehicle id="314" depart="376.80">
        <route edges="road4 road1"/>
    </vehicle>
    <vehicle id="315" depart="378.00">
        <route edges="road3 -road2"/>
    </vehicle>
    <vehicle id="316" depart="379.20">
        <route edges="road2 road1"/>
    </vehicle>
    <vehicle id="317" depart="380.40">
        <route edges="-road1 -road4"/>
    </vehicle>
    <vehicle id="319" depart="382.80">
        <route edges="road2 -road4"/>
    </vehicle>
    <vehicle id="322" depart="386.40">
        <route edges="road3 road1"/>
    </vehicle>
    <vehicle id="323" depart="387.60">
        <route edges="-road1 -road4"/>
    </vehicle>
    <vehicle id="324" depart="388.80">
        <route edges="road2 -road4"/>
    </vehicle>
    <vehicle id="325" depart="390.00">
        <route edges="road2 road1"/>
    </vehicle>
    <vehicle id="326" depart="391.20">
        <route edges="road3 -road2"/>
    </vehicle>
    <vehicle id="327" depart="392.40">
        <route edges="-road1 -road3"/>
    </vehicle>
    <vehicle id="329" depart="394.80">
        <route edges="road4 -road3"/>
    </vehicle>
    <vehicle id="330" depart="396.00">
        <route edges="road4 road1"/>
    </vehicle>
    <vehicle id="331" depart="397.20">
        <route edges="-road1 -road3"/>
    </vehicle>
    <vehicle id="332" depart="398.40">
        <route edges="road2 road1"/>
    </vehicle>
    <vehicle id="333" depart="399.60">
        <route edges="-road1 -road2"/>
    </vehicle>
    <vehicle id="334" depart="400.80">
        <route edges="road4 -road3"/>
    </vehicle>
    <vehicle id="335" depart="402.00">
        <route edges="road4 -road3"/>
    </vehicle>
    <vehicle id="336" depart="403.20">
        <route edges="road3 -road2"/>
    </vehicle>
    <vehicle id="337" depart="404.40">
        <route edges="road4 -road3"/>
    </vehicle>
    <vehicle id="338" depart="405.60">
        <route edges="-road1 -road3"/>
    </vehicle>
    <vehicle id="339" depart="406.80">
        <route edges="road2 -road3"/>
    </vehicle>
    <vehicle id="340" depart="408.00">
        <route edges="-road1 -road2"/>
    </vehicle>
    <vehicle id="342" depart="410.40">
        <route edges="road2 road1"/>
    </vehicle>
    <vehicle id="343" depart="411.60">
        <route edges="road2 road1"/>
    </vehicle>
    <vehicle id="344" depart="412.80">
        <route edges="road2 road1"/>
    </vehicle>
    <vehicle id="345" depart="414.00">
        <route edges="road2 -road3"/>
    </vehicle>
    <vehicle id="347" depart="416.40">
        <route edges="road3 -road2"/>
    </vehicle>
    <vehicle id="348" depart="417.60">
        <route edges="road4 -road2"/>
    </vehicle>
    <vehicle id="349" depart="418.80">
        <route edges="-road1 -road4"/>
    </vehicle>
    <vehicle id="351" depart="421.20">
        <route edges="road3 -road4"/>
    </vehicle>
    <vehicle id="352" depart="422.40">
        <route edges="road4 -road3"/>
    </vehicle>
    <vehicle id="354" depart="424.80">
        <route edges="road2 road1"/>
    </vehicle>
    <vehicle id="355" depart="426.00">
        <route edges="road2 -road3"/>
    </vehicle>
    <vehicle id="357" depart="428.40">
        <route edges="road4 -road3"/>
    </vehicle>
    <vehicle id="358" depart="429.60">
        <route edges="road4 road1"/>
    </vehicle>
    <vehicle id="359" depart="430.80">
        <route edges="road2 -road3"/>
    </vehicle>
    <vehicle id="360" depart="432.00">
        <route edges="road2 -road3"/>
    </vehicle>
    <vehicle id="361" depart="433.20">
        <route edges="-road1 -road2"/>
    </vehicle>
    <vehicle id="362" depart="434.40">
        <route edges="road4 -road3"/>
    </vehicle>
    <vehicle id="363" depart="435.60">
        <route edges="road2 road1"/>
    </vehicle>
    <vehicle id="364" depart="436.80">
        <route edges="road4 road1"/>
    </vehicle>
    <vehicle id="365" depart="438.00">
        <route edges="-road1 -road3"/>
    </vehicle>
    <vehicle id="366" depart="439.20">
        <route edges="road2 road1"/>
    </vehicle>
    <vehicle id="369" depart="442.80">
        <route edges="-road1 -road4"/>
    </vehicle>
    <vehicle id="370" depart="444.00">
        <route edges="road2 road1"/>
    </vehicle>
    <vehicle id="371" depart="445.20">
        <route edges="road3 -road4"/>
    </vehicle>
    <vehicle id="372" depart="446.40">
        <route edges="road3 -road2"/>
    </vehicle>
    <vehicle id="374" depart="448.80">
        <route edges="road4 -road2"/>
    </vehicle>
    <vehicle id="375" depart="450.00">
        <route edges="road4 road1"/>
    </vehicle>
    <vehicle id="376" depart="451.20">
        <route edges="road4 -road3"/>
    </vehicle>
    <vehicle id="378" depart="453.60">
        <route edges="-road1 -road4"/>
    </vehicle>
    <vehicle id="380" depart="456.00">
        <route edges="road4 -road3"/>
    </vehicle>
    <vehicle id="382" depart="458.40">
        <route edges="-road1 -road3"/>
    </vehicle>
    <vehicle id="383" depart="459.60">
        <route edges="-road1 -road3"/>
    </vehicle>
    <vehicle id="385" depart="462.00">
        <route edges="road2 -road3"/>
    </vehicle>
    <vehicle id="387" depart="464.40">
        <route edges="road3 -road2"/>
    </vehicle>
    <vehicle id="389" depart="466.80">
        <route edges="road3 -road4"/>
    </vehicle>
    <vehicle id="390" depart="468.00">
        <route edges="road3 -road2"/>
    </vehicle>
    <vehicle id="394" depart="472.80">
        <route edges="road4 -road3"/>
    </vehicle>
    <vehicle id="396" depart="475.20">
        <route edges="road2 -road3"/>
    </vehicle>
    <vehicle id="397" depart="476.40">
        <route edges="road2 road1"/>
    </vehicle>
    <vehicle id="398" depart="477.60">
        <route edges="road4 -road2"/>
    </vehicle>
    <vehicle id="399" depart="478.80">
        <route edges="road3 -road4"/>
    </vehicle>
    <vehicle id="400" depart="480.00">
        <route edges="-road1 -road4"/>
    </vehicle>
    <vehicle id="401" depart="481.20">
        <route edges="road2 -road4"/>
    </vehicle>
    <vehicle id="402" depart="482.40">
        <route edges="road3 -road4"/>
    </vehicle>
    <vehicle id="403" depart="483.60">
        <route edges="road2 -road4"/>
    </vehicle>
    <vehicle id="404" depart="484.80">
        <route edges="road4 road1"/>
    </vehicle>
    <vehicle id="405" depart="486.00">
        <route edges="road3 -road4"/>
    </vehicle>
    <vehicle id="407" depart="488.40">
        <route edges="road3 -road2"/>
    </vehicle>
    <vehicle id="408" depart="489.60">
        <route edges="-road1 -road3"/>
    </vehicle>
    <vehicle id="409" depart="490.80">
        <route edges="road4 road1"/>
    </vehicle>
    <vehicle id="410" depart="492.00">
        <route edges="road2 -road4"/>
    </vehicle>
    <vehicle id="413" depart="495.60">
        <route edges="road3 -road4"/>
    </vehicle>
    <vehicle id="414" depart="496.80">
        <route edges="road3 -road4"/>
    </vehicle>
    <vehicle id="415" depart="498.00">
        <route edges="road3 road1"/>
    </vehicle>
    <vehicle id="417" depart="500.40">
        <route edges="road4 -road2"/>
    </vehicle>
    <vehicle id="418" depart="501.60">
        <route edges="road3 -road2"/>
    </vehicle>
    <vehicle id="419" depart="502.80">