<?xml version="1.0" encoding="UTF-8"?>
<!-- generated on 2018-04-25 14:04:35.924883 by $Id$
  options: -n newnet.net.xml -e 800 -p 1.2 -r newnet.rou.xml
-->
<routes xmlns:xsi="http://www.w3.org/2001/XMLSchema-instance" xsi:noNamespaceSchemaLocation="http://sumo.dlr.de/xsd/routes_file.xsd">
    <trip id="0" depart="0.00" from="road3" to="-road3"/>
    <trip id="1" depart="1.20" from="road3" to="road1"/>
    <trip id="2" depart="2.40" from="road2" to="-road2"/>
    <trip id="3" depart="3.60" from="road4" to="-road4"/>
    <trip id="4" depart="4.80" from="road3" to="-road4"/>
    <trip id="5" depart="6.00" from="-road1" to="-road2"/>
    <trip id="6" depart="7.20" from="-road1" to="-road3"/>
    <trip id="7" depart="8.40" from="road3" to="road1"/>
    <trip id="8" depart="9.60" from="road3" to="-road2"/>
    <trip id="9" depart="10.80" from="road3" to="road1"/>
    <trip id="10" depart="12.00" from="-road1" to="-road2"/>
    <trip id="11" depart="13.20" from="road4" to="-road3"/>
    <trip id="12" depart="14.40" from="road4" to="-road2"/>
    <trip id="13" depart="15.60" from="road2" to="-road3"/>
    <trip id="14" depart="16.80" from="road3" to="-road4"/>
    <trip id="15" depart="18.00" from="road3" to="road1"/>
    <trip id="16" depart="19.20" from="road3" to="-road4"/>
    <trip id="17" depart="20.40" from="road2" to="-road2"/>
    <trip id="18" depart="21.60" from="road4" to="-road3"/>
    <trip id="19" depart="22.80" from="-road1" to="-road4"/>
    <trip id="20" depart="24.00" from="road3" to="-road3"/>
    <trip id="21" depart="25.20" from="road2" to="-road4"/>
    <trip id="22" depart="26.40" from="road2" to="-road2"/>
    <trip id="23" depart="27.60" from="road4" to="-road4"/>
    <trip id="24" depart="28.80" from="road3" to="-road2"/>
    <trip id="25" depart="30.00" from="-road1" to="-road4"/>
    <trip id="26" depart="31.20" from="road3" to="road1"/>
    <trip id="27" depart="32.40" from="road3" to="-road4"/>
    <trip id="28" depart="33.60" from="road3" to="-road2"/>
    <trip id="29" depart="34.80" from="road3" to="-road4"/>
    <trip id="30" depart="36.00" from="road2" to="-road3"/>
    <trip id="31" depart="37.20" from="-road1" to="-road4"/>
    <trip id="32" depart="38.40" from="road4" to="road1"/>
    <trip id="33" depart="39.60" from="road4" to="road1"/>
    <trip id="34" depart="40.80" from="road2" to="-road2"/>
    <trip id="35" depart="42.00" from="road2" to="-road3"/>
    <trip id="36" depart="43.20" from="road3" to="road1"/>
    <trip id="37" depart="44.40" from="road4" to="-road3"/>
    <trip id="38" depart="45.60" from="-road1" to="-road2"/>
    <trip id="39" depart="46.80" from="road2" to="road1"/>
    <trip id="40" depart="48.00" from="road2" to="road1"/>
    <trip id="41" depart="49.20" from="road4" to="-road4"/>
    <trip id="42" depart="50.40" from="-road1" to="-road3"/>
    <trip id="43" depart="51.60" from="road4" to="-road3"/>
    <trip id="44" depart="52.80" from="road2" to="road1"/>
    <trip id="45" depart="54.00" from="road3" to="-road4"/>
    <trip id="46" depart="55.20" from="road3" to="-road4"/>
    <trip id="47" depart="56.40" from="road4" to="-road2"/>
    <trip id="48" depart="57.60" from="road2" to="-road2"/>
    <trip id="49" depart="58.80" from="-road1" to="road1"/>
    <trip id="50" depart="60.00" from="-road1" to="road1"/>
    <trip id="51" depart="61.20" from="road4" to="road1"/>
    <trip id="52" depart="62.40" from="road2" to="-road3"/>
    <trip id="53" depart="63.60" from="road3" to="-road2"/>
    <trip id="54" depart="64.80" from="road2" to="-road4"/>
    <trip id="55" depart="66.00" from="road3" to="-road3"/>
    <trip id="56" depart="67.20" from="road2" to="road1"/>
    <trip id="57" depart="68.40" from="road2" to="-road4"/>
    <trip id="58" depart="69.60" from="road2" to="-road4"/>
    <trip id="59" depart="70.80" from="-road1" to="-road3"/>
    <trip id="60" depart="72.00" from="road4" to="road1"/>
    <trip id="61" depart="73.20" from="road4" to="-road2"/>
    <trip id="62" depart="74.40" from="road4" to="-road4"/>
    <trip id="63" depart="75.60" from="-road1" to="-road4"/>
    <trip id="64" depart="76.80" from="road2" to="-road4"/>
    <trip id="65" depart="78.00" from="road2" to="-road2"/>
    <trip id="66" depart="79.20" from="road2" to="-road2"/>
    <trip id="67" depart="80.40" from="road4" to="-road2"/>
    <trip id="68" depart="81.60" from="road2" to="-road2"/>
    <trip id="69" depart="82.80" from="-road1" to="road1"/>
    <trip id="70" depart="84.00" from="road2" to="-road2"/>
    <trip id="71" depart="85.20" from="road4" to="-road4"/>
    <trip id="72" depart="86.40" from="road3" to="-road2"/>
    <trip id="73" depart="87.60" from="road3" to="-road4"/>
    <trip id="74" depart="88.80" from="road4" to="road1"/>
    <trip id="75" depart="90.00" from="road2" to="-road4"/>
    <trip id="76" depart="91.20" from="road3" to="-road2"/>
    <trip id="77" depart="92.40" from="road3" to="road1"/>
    <trip id="78" depart="93.60" from="road3" to="road1"/>
    <trip id="79" depart="94.80" from="road3" to="-road3"/>
    <trip id="80" depart="96.00" from="road2" to="-road3"/>
    <trip id="81" depart="97.20" from="-road1" to="-road4"/>
    <trip id="82" depart="98.40" from="road3" to="-road3"/>
    <trip id="83" depart="99.60" from="road2" to="-road3"/>
    <trip id="84" depart="100.80" from="road4" to="-road3"/>
    <trip id="85" depart="102.00" from="road2" to="-road3"/>
    <trip id="86" depart="103.20" from="road4" to="road1"/>
    <trip id="87" depart="104.40" from="road4" to="road1"/>
    <trip id="88" depart="105.60" from="road2" to="-road4"/>
    <trip id="89" depart="106.80" from="road3" to="-road3"/>
    <trip id="90" depart="108.00" from="road2" to="-road4"/>
    <trip id="91" depart="109.20" from="-road1" to="-road3"/>
    <trip id="92" depart="110.40" from="road3" to="-road2"/>
    <trip id="93" depart="111.60" from="road3" to="-road2"/>
    <trip id="94" depart="112.80" from="road2" to="-road4"/>
    <trip id="95" depart="114.00" from="road2" to="-road2"/>
    <trip id="96" depart="115.20" from="road3" to="road1"/>
    <trip id="97" depart="116.40" from="road3" to="road1"/>
    <trip id="98" depart="117.60" from="road2" to="-road4"/>
    <trip id="99" depart="118.80" from="road4" to="-road3"/>
    <trip id="100" depart="120.00" from="road2" to="-road3"/>
    <trip id="101" depart="121.20" from="road2" to="road1"/>
    <trip id="102" depart="122.40" from="road2" to="road1"/>
    <trip id="103" depart="123.60" from="road2" to="-road2"/>
    <trip id="104" depart="124.80" from="road3" to="-road2"/>
    <trip id="105" depart="126.00" from="road3" to="-road3"/>
    <trip id="106" depart="127.20" from="road4" to="road1"/>
    <trip id="107" depart="128.40" from="road2" to="road1"/>
    <trip id="108" depart="129.60" from="road2" to="-road4"/>
    <trip id="109" depart="130.80" from="road2" to="-road3"/>
    <trip id="110" depart="132.00" from="road4" to="-road2"/>
    <trip id="111" depart="133.20" from="road3" to="-road3"/>
    <trip id="112" depart="134.40" from="-road1" to="-road2"/>
    <trip id="113" depart="135.60" from="road4" to="-road2"/>
    <trip id="114" depart="136.80" from="road3" to="road1"/>
    <trip id="115" depart="138.00" from="road3" to="-road2"/>
    <trip id="116" depart="139.20" from="road3" to="-road4"/>
    <trip id="117" depart="140.40" from="road4" to="-road4"/>
    <trip id="118" depart="141.60" from="road3" to="-road3"/>
    <trip id="119" depart="142.80" from="-road1" to="road1"/>
    <trip id="120" depart="144.00" from="road2" to="-road3"/>
    <trip id="121" depart="145.20" from="road2" to="-road4"/>
    <trip id="122" depart="146.40" from="road4" to="road1"/>
    <trip id="123" depart="147.60" from="road4" to="road1"/>
    <trip id="124" depart="148.80" from="road2" to="road1"/>
    <trip id="125" depart="150.00" from="-road1" to="-road4"/>
    <trip id="126" depart="151.20" from="road2" to="road1"/>
    <trip id="127" depart="152.40" from="road4" to="road1"/>
    <trip id="128" depart="153.60" from="-road1" to="-road3"/>
    <trip id="129" depart="154.80" from="road4" to="-road4"/>
    <trip id="130" depart="156.00" from="road2" to="road1"/>
    <trip id="131" depart="157.20" from="road3" to="-road2"/>
    <trip id="132" depart="158.40" from="road2" to="-road3"/>
    <trip id="133" depart="159.60" from="road4" to="-road4"/>
    <trip id="134" depart="160.80" from="road4" to="-road3"/>
    <trip id="135" depart="162.00" from="road4" to="-road4"/>
    <trip id="136" depart="163.20" from="road4" to="-road3"/>
    <trip id="137" depart="164.40" from="road2" to="-road2"/>
    <trip id="138" depart="165.60" from="road3" to="-road2"/>
    <trip id="139" depart="166.80" from="road3" to="-road4"/>
    <trip id="140" depart="168.00" from="road4" to="-road2"/>
    <trip id="141" depart="169.20" from="road3" to="road1"/>
    <trip id="142" depart="170.40" from="-road1" to="-road4"/>
    <trip id="143" depart="171.60" from="road2" to="-road2"/>
    <trip id="144" depart="172.80" from="road3" to="-road4"/>
    <trip id="145" depart="174.00" from="road4" to="-road4"/>
    <trip id="146" depart="175.20" from="road4" to="road1"/>
    <trip id="147" depart="176.40" from="road3" to="road1"/>
    <trip id="148" depart="177.60" from="-road1" to="-road4"/>
    <trip id="149" depart="178.80" from="road4" to="road1"/>
    <trip id="150" depart="180.00" from="road2" to="-road4"/>
    <trip id="151" depart="181.20" from="road4" to="-road4"/>
    <trip id="152" depart="182.40" from="road3" to="-road4"/>
    <trip id="153" depart="183.60" from="-road1" to="-road3"/>
    <trip id="154" depart="184.80" from="road4" to="-road4"/>
    <trip id="155" depart="186.00" from="-road1" to="-road2"/>
    <trip id="156" depart="187.20" from="road2" to="-road3"/>
    <trip id="157" depart="188.40" from="road4" to="-road4"/>
    <trip id="158" depart="189.60" from="road4" to="road1"/>
    <trip id="159" depart="190.80" from="road4" to="-road2"/>
    <trip id="160" depart="192.00" from="-road1" to="road1"/>
    <trip id="161" depart="193.20" from="road2" to="-road4"/>
    <trip id="162" depart="194.40" from="road4" to="-road2"/>
    <trip id="163" depart="195.60" from="road4" to="road1"/>
    <trip id="164" depart="196.80" from="road4" to="road1"/>
    <trip id="165" depart="198.00" from="-road1" to="-road2"/>
    <trip id="166" depart="199.20" from="road4" to="road1"/>
    <trip id="167" depart="200.40" from="-road1" to="-road4"/>
    <trip id="168" depart="201.60" from="road3" to="-road2"/>
    <trip id="169" depart="202.80" from="road4" to="-road2"/>
    <trip id="170" depart="204.00" from="-road1" to="-road4"/>
    <trip id="171" depart="205.20" from="road2" to="-road4"/>
    <trip id="172" depart="206.40" from="-road1" to="-road2"/>
    <trip id="173" depart="207.60" from="road3" to="road1"/>
    <trip id="174" depart="208.80" from="road2" to="-road3"/>
    <trip id="175" depart="210.00" from="road3" to="road1"/>
    <trip id="176" depart="211.20" from="-road1" to="-road3"/>
    <trip id="177" depart="212.40" from="road2" to="road1"/>
    <trip id="178" depart="213.60" from="road4" to="road1"/>
    <trip id="179" depart="214.80" from="road3" to="-road2"/>
    <trip id="180" depart="216.00" from="road4" to="-road2"/>
    <trip id="181" depart="217.20" from="road3" to="road1"/>
    <trip id="182" depart="218.40" from="road2" to="-road3"/>
    <trip id="183" depart="219.60" from="road3" to="road1"/>
    <trip id="184" depart="220.80" from="road2" to="road1"/>
    <trip id="185" depart="222.00" from="road4" to="road1"/>
    <trip id="186" depart="223.20" from="-road1" to="road1"/>
    <trip id="187" depart="224.40" from="-road1" to="-road3"/>
    <trip id="188" depart="225.60" from="road3" to="-road3"/>
    <trip id="189" depart="226.80" from="road3" to="-road2"/>
    <trip id="190" depart="228.00" from="road3" to="-road2"/>
    <trip id="191" depart="229.20" from="road3" to="-road4"/>
    <trip id="192" depart="230.40" from="road4" to="-road2"/>
    <trip id="193" depart="231.60" from="-road1" to="-road3"/>
    <trip id="194" depart="232.80" from="road4" to="-road4"/>
    <trip id="195" depart="234.00" from="road3" to="-road2"/>
    <trip id="196" depart="235.20" from="road2" to="road1"/>
    <trip id="197" depart="236.40" from="road3" to="road1"/>
    <trip id="198" depart="237.60" from="road2" to="-road4"/>
    <trip id="199" depart="238.80" from="road3" to="-road2"/>
    <trip id="200" depart="240.00" from="-road1" to="road1"/>
    <trip id="201" depart="241.20" from="-road1" to="-road2"/>
    <trip id="202" depart="242.40" from="road2" to="-road2"/>
    <trip id="203" depart="243.60" from="road2" to="road1"/>
    <trip id="204" depart="244.80" from="road2" to="-road2"/>
    <trip id="205" depart="246.00" from="-road1" to="-road4"/>
    <trip id="206" depart="247.20" from="-road1" to="road1"/>
    <trip id="207" depart="248.40" from="road4" to="-road2"/>
    <trip id="208" depart="249.60" from="-road1" to="road1"/>
    <trip id="209" depart="250.80" from="road2" to="road1"/>
    <trip id="210" depart="252.00" from="road2" to="road1"/>
    <trip id="211" depart="253.20" from="-road1" to="-road3"/>
    <trip id="212" depart="254.40" from="road4" to="-road4"/>
    <trip id="213" depart="255.60" from="-road1" to="-road2"/>
    <trip id="214" depart="256.80" from="road4" to="-road2"/>
    <trip id="215" depart="258.00" from="road3" to="-road3"/>
    <trip id="216" depart="259.20" from="road4" to="road1"/>
    <trip id="217" depart="260.40" from="-road1" to="-road4"/>
    <trip id="218" depart="261.60" from="road4" to="-road3"/>
    <trip id="219" depart="262.80" from="road4" to="-road2"/>
    <trip id="220" depart="264.00" from="road3" to="-road4"/>
    <trip id="221" depart="265.20" from="road4" to="-road3"/>
    <trip id="222" depart="266.40" from="road2" to="-road2"/>
    <trip id="223" depart="267.60" from="road4" to="road1"/>
    <trip id="224" depart="268.80" from="road3" to="-road3"/>
    <trip id="225" depart="270.00" from="-road1" to="-road4"/>
    <trip id="226" depart="271.20" from="road2" to="-road2"/>
    <trip id="227" depart="272.40" from="road3" to="-road4"/>
    <trip id="228" depart="273.60" from="road3" to="-road2"/>
    <trip id="229" depart="274.80" from="road2" to="-road3"/>
    <trip id="230" depart="276.00" from="road3" to="-road4"/>
    <trip id="231" depart="277.20" from="road4" to="-road2"/>
    <trip id="232" depart="278.40" from="road4" to="-road4"/>
    <trip id="233" depart="279.60" from="road2" to="road1"/>
    <trip id="234" depart="280.80" from="-road1" to="-road3"/>
    <trip id="235" depart="282.00" from="road4" to="-road4"/>
    <trip id="236" depart="283.20" from="road3" to="-road2"/>
    <trip id="237" depart="284.40" from="-road1" to="road1"/>
    <trip id="238" depart="285.60" from="road3" to="-road3"/>
    <trip id="239" depart="286.80" from="road3" to="-road2"/>
    <trip id="240" depart="288.00" from="road2" to="-road3"/>
    <trip id="241" depart="289.20" from="road2" to="-road4"/>
    <trip id="242" depart="290.40" from="road3" to="road1"/>
    <trip id="243" depart="291.60" from="road4" to="road1"/>
    <trip id="244" depart="292.80" from="road4" to="-road2"/>
    <trip id="245" depart="294.00" from="-road1" to="road1"/>
    <trip id="246" depart="295.20" from="road3" to="road1"/>
    <trip id="247" depart="296.40" from="road2" to="road1"/>
    <trip id="248" depart="297.60" from="road2" to="road1"/>
    <trip id="249" depart="298.80" from="road3" to="-road3"/>
    <trip id="250" depart="300.00" from="-road1" to="-road4"/>
    <trip id="251" depart="301.20" from="road4" to="road1"/>
    <trip id="252" depart="302.40" from="-road1" to="road1"/>
    <trip id="253" depart="303.60" from="road4" to="-road3"/>
    <trip id="254" depart="304.80" from="road2" to="road1"/>
    <trip id="255" depart="306.00" from="road3" to="-road4"/>
    <trip id="256" depart="307.20" from="road2" to="-road4"/>
    <trip id="257" depart="308.40" from="road3" to="-road3"/>
    <trip id="258" depart="309.60" from="road3" to="road1"/>
    <trip id="259" depart="310.80" from="road3" to="-road3"/>
    <trip id="260" depart="312.00" from="road2" to="road1"/>
    <trip id="261" depart="313.20" from="road4" to="-road2"/>
    <trip id="262" depart="314.40" from="road2" to="-road4"/>
    <trip id="263" depart="315.60" from="road2" to="-road2"/>
    <trip id="264" depart="316.80" from="-road1" to="-road4"/>
    <trip id="265" depart="318.00" from="road4" to="road1"/>
    <trip id="266" depart="319.20" from="road3" to="-road4"/>
    <trip id="267" depart="320.40" from="-road1" to="road1"/>
    <trip id="268" depart="321.60" from="-road1" to="-road3"/>
    <trip id="269" depart="322.80" from="road4" to="road1"/>
    <trip id="270" depart="324.00" from="-road1" to="-road2"/>
    <trip id="271" depart="325.20" from="-road1" to="road1"/>
    <trip id="272" depart="326.40" from="road4" to="road1"/>
    <trip id="273" depart="327.60" from="road4" to="-road2"/>
    <trip id="274" depart="328.80" from="road3" to="-road2"/>
    <trip id="275" depart="330.00" from="road3" to="road1"/>
    <trip id="276" depart="331.20" from="road4" to="road1"/>
    <trip id="277" depart="332.40" from="road3" to="-road2"/>
    <trip id="278" depart="333.60" from="road3" to="road1"/>
    <trip id="279" depart="334.80" from="road3" to="-road4"/>
    <trip id="280" depart="336.00" from="road2" to="-road2"/>
    <trip id="281" depart="337.20" from="road2" to="-road2"/>
    <trip id="282" depart="338.40" from="road2" to="-road3"/>
    <trip id="283" depart="339.60" from="-road1" to="road1"/>
    <trip id="284" depart="340.80" from="road4" to="-road3"/>
    <trip id="285" depart="342.00" from="road4" to="-road3"/>
    <trip id="286" depart="343.20" from="-road1" to="road1"/>
    <trip id="287" depart="344.40" from="-road1" to="-road4"/>
    <trip id="288" depart="345.60" from="road4" to="-road2"/>
    <trip id="289" depart="346.80" from="-road1" to="-road4"/>
    <trip id="290" depart="348.00" from="road3" to="road1"/>
    <trip id="291" depart="349.20" from="road2" to="-road4"/>
    <trip id="292" depart="350.40" from="road2" to="road1"/>
    <trip id="293" depart="351.60" from="road3" to="-road2"/>
    <trip id="294" depart="352.80" from="road3" to="road1"/>
    <trip id="295" depart="354.00" from="road2" to="road1"/>
    <trip id="296" depart="355.20" from="-road1" to="-road4"/>
    <trip id="297" depart="356.40" from="road4" to="-road2"/>
    <trip id="298" depart="357.60" from="road4" to="road1"/>
    <trip id="299" depart="358.80" from="-road1" to="-road3"/>
    <trip id="300" depart="360.00" from="road4" to="road1"/>
    <trip id="301" depart="361.20" from="-road1" to="-road4"/>
    <trip id="302" depart="362.40" from="road2" to="-road4"/>
    <trip id="303" depart="363.60" from="road2" to="-road3"/>
    <trip id="304" depart="364.80" from="road3" to="-road4"/>
    <trip id="305" depart="366.00" from="-road1" to="road1"/>
    <trip id="306" depart="367.20" from="road3" to="road1"/>
    <trip id="307" depart="368.40" from="road2" to="-road3"/>
    <trip id="308" depart="369.60" from="road4" to="-road2"/>
    <trip id="309" depart="370.80" from="-road1" to="-road2"/>
    <trip id="310" depart="372.00" from="road4" to="-road2"/>
    <trip id="311" depart="373.20" from="road2" to="-road3"/>
    <trip id="312" depart="374.40" from="road4" to="-road4"/>
    <trip id="313" depart="375.60" from="road2" to="-road3"/>
    <trip id="314" depart="376.80" from="road3" to="-road3"/>
    <trip id="315" depart="378.00" from="road2" to="road1"/>
    <trip id="316" depart="379.20" from="road4" to="-road3"/>
    <trip id="317" depart="380.40" from="road4" to="-road4"/>
    <trip id="318" depart="381.60" from="road2" to="road1"/>
    <trip id="319" depart="382.80" from="road2" to="road1"/>
    <trip id="320" depart="384.00" from="-road1" to="-road4"/>
    <trip id="321" depart="385.20" from="road3" to="road1"/>
    <trip id="322" depart="386.40" from="road3" to="road1"/>
    <trip id="323" depart="387.60" from="road3" to="-road4"/>
    <trip id="324" depart="388.80" from="road3" to="road1"/>
    <trip id="325" depart="390.00" from="road2" to="road1"/>
    <trip id="326" depart="391.20" from="road4" to="-road3"/>
    <trip id="327" depart="392.40" from="road4" to="-road2"/>
    <trip id="328" depart="393.60" from="road2" to="road1"/>
    <trip id="329" depart="394.80" from="road4" to="-road3"/>
    <trip id="330" depart="396.00" from="road4" to="road1"/>
    <trip id="331" depart="397.20" from="road2" to="-road2"/>
    <trip id="332" depart="398.40" from="-road1" to="-road3"/>
    <trip id="333" depart="399.60" from="road4" to="road1"/>
    <trip id="334" depart="400.80" from="road2" to="-road3"/>
    <trip id="335" depart="402.00" from="road3" to="-road3"/>
    <trip id="336" depart="403.20" from="road2" to="-road3"/>
    <trip id="337" depart="404.40" from="road3" to="road1"/>
    <trip id="338" depart="405.60" from="-road1" to="-road2"/>
    <trip id="339" depart="406.80" from="-road1" to="-road3"/>
    <trip id="340" depart="408.00" from="road3" to="-road2"/>
    <trip id="341" depart="409.20" from="road3" to="-road2"/>
    <trip id="342" depart="410.40" from="-road1" to="-road2"/>
    <trip id="343" depart="411.60" from="road4" to="road1"/>
    <trip id="344" depart="412.80" from="road3" to="-road2"/>
    <trip id="345" depart="414.00" from="road2" to="-road4"/>
    <trip id="346" depart="415.20" from="road4" to="-road3"/>
    <trip id="347" depart="416.40" from="road2" to="-road3"/>
    <trip id="348" depart="417.60" from="-road1" to="road1"/>
    <trip id="349" depart="418.80" from="road4" to="-road3"/>
    <trip id="350" depart="420.00" from="road4" to="road1"/>
    <trip id="351" depart="421.20" from="road2" to="road1"/>
    <trip id="352" depart="422.40" from="road4" to="-road2"/>
    <trip id="353" depart="423.60" from="road3" to="-road4"/>
    <trip id="354" depart="424.80" from="road4" to="road1"/>
    <trip id="355" depart="426.00" from="road4" to="-road4"/>
    <trip id="356" depart="427.20" from="road3" to="-road4"/>
    <trip id="357" depart="428.40" from="-road1" to="-road2"/>
    <trip id="358" depart="429.60" from="road2" to="-road2"/>
    <trip id="359" depart="430.80" from="-road1" to="road1"/>
    <trip id="360" depart="432.00" from="road4" to="-road2"/>
    <trip id="361" depart="433.20" from="road2" to="-road3"/>
    <trip id="362" depart="434.40" from="road2" to="-road2"/>
    <trip id="363" depart="435.60" from="road3" to="-road4"/>
    <trip id="364" depart="436.80" from="-road1" to="-road2"/>
    <trip id="365" depart="438.00" from="-road1" to="-road3"/>
    <trip id="366" depart="439.20" from="road3" to="-road3"/>
    <trip id="367" depart="440.40" from="road2" to="-road3"/>
    <trip id="368" depart="441.60" from="road4" to="-road2"/>
    <trip id="369" depart="442.80" from="road2" to="-road3"/>
    <trip id="370" depart="444.00" from="road4" to="road1"/>
    <trip id="371" depart="445.20" from="road4" to="-road4"/>
    <trip id="372" depart="446.40" from="road2" to="-road3"/>
    <trip id="373" depart="447.60" from="-road1" to="-road4"/>
    <trip id="374" depart="448.80" from="road3" to="-road2"/>
    <trip id="375" depart="450.00" from="road2" to="-road3"/>
    <trip id="376" depart="451.20" from="road3" to="-road4"/>
    <trip id="377" depart="452.40" from="road2" to="-road3"/>
    <trip id="378" depart="453.60" from="road3" to="-road2"/>
    <trip id="379" depart="454.80" from="road2" to="-road4"/>
    <trip id="380" depart="456.00" from="road3" to="-road4"/>
    <trip id="381" depart="457.20" from="road3" to="-road4"/>
    <trip id="382" depart="458.40" from="road3" to="-road2"/>
    <trip id="383" depart="459.60" from="-road1" to="-road3"/>
    <trip id="384" depart="460.80" from="road4" to="-road2"/>
    <trip id="385" depart="462.00" from="road3" to="-road4"/>
    <trip id="386" depart="463.20" from="road2" to="road1"/>
    <trip id="387" depart="464.40" from="road3" to="-road3"/>
    <trip id="388" depart="465.60" from="road4" to="-road4"/>
    <trip id="389" depart="466.80" from="road2" to="-road2"/>
    <trip id="390" depart="468.00" from="road3" to="road1"/>
    <trip id="391" depart="469.20" from="road2" to="-road3"/>
    <trip id="392" depart="470.40" from="road3" to="-road4"/>
    <trip id="393" depart="471.60" from="road2" to="-road3"/>
    <trip id="394" depart="472.80" from="-road1" to="road1"/>
    <trip id="395" depart="474.00" from="-road1" to="road1"/>
    <trip id="396" depart="475.20" from="-road1" to="-road3"/>
    <trip id="397" depart="476.40" from="-road1" to="-road3"/>
    <trip id="398" depart="477.60" from="road3" to="-road3"/>
    <trip id="399" depart="478.80" from="road4" to="-road4"/>
    <trip id="400" depart="480.00" from="road3" to="road1"/>
    <trip id="401" depart="481.20" from="road2" to="-road3"/>
    <trip id="402" depart="482.40" from="road4" to="-road2"/>
    <trip id="403" depart="483.60" from="road4" to="-road3"/>
    <trip id="404" depart="484.80" from="road4" to="-road2"/>
    <trip id="405" depart="486.00" from="road3" to="-road4"/>
    <trip id="406" depart="487.20" from="road4" to="-road3"/>
    <trip id="407" depart="488.40" from="road2" to="-road4"/>
    <trip id="408" depart="489.60" from="road3" to="-road2"/>
    <trip id="409" depart="490.80" from="road2" to="-road3"/>
    <trip id="410" depart="492.00" from="road2" to="-road3"/>
    <trip id="411" depart="493.20" from="-road1" to="road1"/>
    <trip id="412" depart="494.40" from="-road1" to="-road4"/>
    <trip id="413" depart="495.60" from="road2" to="-road2"/>
    <trip id="414" depart="496.80" from="road4" to="-road4"/>
    <trip id="415" depart="498.00" from="road4" to="-road3"/>
    <trip id="416" depart="499.20" from="road4" to="-road2"/>
    <trip id="417" depart="500.40" from="road4" to="-road3"/>
    <trip id="418" depart="501.60" from="road4" to="-road2"/>
    <trip id="419" depart="502.80" from="-road1" to="-road3"/>
    <trip id="420" depart="504.00" from="road3" to="-road3"/>
    <trip id="421" depart="505.20" from="-road1" to="road1"/>
    <trip id="422" depart="506.40" from="road3" to="-road3"/>
    <trip id="423" depart="507.60" from="road4" to="-road4"/>
    <trip id="424" depart="508.80" from="road4" to="-road4"/>
    <trip id="425" depart="510.00" from="road2" to="road1"/>
    <trip id="426" depart="511.20" from="road3" to="-road4"/>
    <trip id="427" depart="512.40" from="-road1" to="-road4"/>
    <trip id="428" depart="513.60" from="road3" to="road1"/>
    <trip id="429" depart="514.80" from="-road1" to="-road3"/>
    <trip id="430" depart="516.00" from="road3" to="-road4"/>
    <trip id="431" depart="517.20" from="road4" to="-road4"/>
    <trip id="432" depart="518.40" from="road2" to="-road4"/>
    <trip id="433" depart="519.60" from="-road1" to="-road4"/>
    <trip id="434" depart="520.80" from="road3" to="-road2"/>
    <trip id="435" depart="522.00" from="-road1" to="-road3"/>
    <trip id="436" depart="523.20" from="road2" to="-road3"/>
    <trip id="437" depart="524.40" from="road3" to="-road4"/>
    <trip id="438" depart="525.60" from="road3" to="road1"/>
    <trip id="439" depart="526.80" from="road2" to="-road3"/>
    <trip id="440" depart="528.00" from="road2" to="-road3"/>
    <trip id="441" depart="529.20" from="road4" to="-road4"/>
    <trip id="442" depart="530.40" from="road2" to="-road3"/>
    <trip id="443" depart="531.60" from="road3" to="-road3"/>
    <trip id="444" depart="532.80" from="-road1" to="road1"/>
    <trip id="445" depart="534.00" from="road3" to="-road4"/>
    <trip id="446" depart="535.20" from="-road1" to="road1"/>
    <trip id="447" depart="536.40" from="-road1" to="-road2"/>
    <trip id="448" depart="537.60" from="road2" to="-road2"/>
    <trip id="449" depart="538.80" from="road3" to="-road3"/>
    <trip id="450" depart="540.00" from="-road1" to="road1"/>
    <trip id="451" depart="541.20" from="road4" to="-road3"/>
    <trip id="452" depart="542.40" from="-road1" to="road1"/>
    <trip id="453" depart="543.60" from="road4" to="-road3"/>
    <trip id="454" depart="544.80" from="-road1" to="-road3"/>
    <trip id="455" depart="546.00" from="road3" to="road1"/>
    <trip id="456" depart="547.20" from="-road1" to="-road4"/>
    <trip id="457" depart="548.40" from="-road1" to="-road4"/>
    <trip id="458" depart="549.60" from="road4" to="road1"/>
    <trip id="459" depart="550.80" from="road4" to="road1"/>
    <trip id="460" depart="552.00" from="road4" to="-road3"/>
    <trip id="461" depart="553.20" from="road4" to="-road2"/>
    <trip id="462" depart="554.40" from="-road1" to="-road3"/>
    <trip id="463" depart="555.60" from="road2" to="road1"/>
    <trip id="464" depart="556.80" from="road2" to="-road3"/>
    <trip id="465" depart="558.00" from="-road1" to="road1"/>
    <trip id="466" depart="559.20" from="road4" to="road1"/>
    <trip id="467" depart="560.40" from="road3" to="-road4"/>
    <trip id="468" depart="561.60" from="road3" to="-road2"/>
    <trip id="469" depart="562.80" from="road4" to="-road3"/>
    <trip id="470" depart="564.00" from="-road1" to="-road4"/>
    <trip id="471" depart="565.20" from="-road1" to="road1"/>
    <trip id="472" depart="566.40" from="road3" to="-road4"/>
    <trip id="473" depart="567.60" from="road3" to="-road4"/>
    <trip id="474" depart="568.80" from="road3" to="-road3"/>
    <trip id="475" depart="570.00" from="road4" to="-road2"/>
    <trip id="476" depart="571.20" from="road4" to="-road4"/>
    <trip id="477" depart="572.40" from="road3" to="road1"/>
    <trip id="478" depart="573.60" from="road3" to="road1"/>
    <trip id="479" depart="574.80" from="road4" to="-road2"/>
    <trip id="480" depart="576.00" from="road3" to="-road2"/>
    <trip id="481" depart="577.20" from="road2" to="road1"/>
    <trip id="482" depart="578.40" from="-road1" to="-road2"/>